MODEL 1
REMARK VINA RESULT:      -8.6      0.000      0.000
REMARK  4 active torsions:
REMARK  status: ('A' for Active; 'I' for Inactive)
REMARK    1  A    between atoms: O_1  and  C_11 
REMARK    2  A    between atoms: C_4  and  C_6 
REMARK    3  A    between atoms: C_6  and  C_10 
REMARK    4  A    between atoms: C_6  and  C_11 
ROOT
ATOM      1  C   LIG d  11     -33.395 -20.803   2.042  0.00  0.00     0.176 C 
ENDROOT
BRANCH   1   2
ATOM      2  C   LIG d  11     -32.933 -19.917   0.834  0.00  0.00     0.081 C 
ATOM      3  N   LIG d  11     -33.263 -20.563  -0.463  0.00  0.00     0.230 N 
ATOM      4  C   LIG d  11     -32.825 -19.749  -1.611  0.00  0.00     0.129 C 
ATOM      5  H   LIG d  11     -34.295 -20.729  -0.531  0.00  0.00     0.202 HD
ATOM      6  H   LIG d   1     -32.786 -21.486  -0.555  0.00  0.00     0.202 HD
ATOM      7  C   LIG d  11     -33.509 -18.379  -1.599  0.00  0.00     0.051 C 
ATOM      8  C   LIG d  11     -33.181 -17.660  -0.292  0.00  0.00     0.011 C 
ATOM      9  C   LIG d  11     -33.617 -18.524   0.895  0.00  0.00     0.056 C 
ENDBRANCH   1   2
BRANCH   1  10
ATOM     10  C   LIG d  11     -32.224 -21.209   2.923  0.00  0.00    -0.028 A 
ATOM     11  C   LIG d  11     -30.919 -20.783   2.612  0.00  0.00     0.005 A 
ATOM     12  C   LIG d  11     -29.844 -21.152   3.429  0.00  0.00     0.000 A 
ATOM     13  C   LIG d  11     -30.061 -21.946   4.558  0.00  0.00     0.000 A 
ATOM     14  C   LIG d  11     -31.352 -22.372   4.875  0.00  0.00     0.000 A 
ATOM     15  C   LIG d  11     -32.430 -22.009   4.064  0.00  0.00     0.005 A 
ENDBRANCH   1  10
BRANCH   1  16
ATOM     16  C   LIG d  11     -34.127 -22.075   1.649  0.00  0.00     0.320 C 
ATOM     17  O   LIG d  11     -33.556 -22.962   1.029  0.00  0.00    -0.250 OA
BRANCH  16  18
ATOM     18  O   LIG d  11     -35.421 -22.231   2.031  0.00  0.00    -0.467 OA
ATOM     19  C   LIG d  11     -36.357 -21.222   1.957  0.00  0.00     0.280 C 
ENDBRANCH  16  18
ENDBRANCH   1  16
TORSDOF 4
BEGIN_RES TYR A  95
REMARK  3 active torsions:
REMARK  status: ('A' for Active; 'I' for Inactive)
REMARK    1  A    between atoms: CA   and  CB  
REMARK    2  A    between atoms: CB   and  CG  
REMARK    3  A    between atoms: CZ   and  OH  
ROOT
ATOM      1  CA  TYR A  95     -31.925 -28.740  -0.297  1.00133.41     0.180 C 
ENDROOT
BRANCH   1   2
ATOM      2  CB  TYR A  95     -30.798 -28.162  -1.153  1.00125.17     0.073 C 
BRANCH   2   3
ATOM      3  CG  TYR A  95     -30.803 -26.650  -1.251  1.00112.79    -0.056 A 
ATOM      4  CD2 TYR A  95     -30.603 -25.862  -0.126  1.00117.30     0.010 A 
ATOM      5  CE2 TYR A  95     -30.612 -24.483  -0.208  1.00 96.38     0.037 A 
ATOM      6  CZ  TYR A  95     -30.828 -23.874  -1.423  1.00 94.79     0.065 A 
ATOM      7  CE1 TYR A  95     -31.032 -24.632  -2.556  1.00101.57     0.037 A 
ATOM      8  CD1 TYR A  95     -31.019 -26.013  -2.466  1.00101.86     0.010 A 
BRANCH   6   9
ATOM      9  OH  TYR A  95     -30.839 -22.502  -1.504  1.00 92.45    -0.361 OA
ATOM     10  HH  TYR A  95     -31.011 -22.082  -2.339  1.00  0.00     0.217 HD
ENDBRANCH   6   9
ENDBRANCH   2   3
ENDBRANCH   1   2
END_RES TYR A  95
BEGIN_RES VAL A  97
REMARK  1 active torsions:
REMARK  status: ('A' for Active; 'I' for Inactive)
REMARK    4  A    between atoms: CA   and  CB  
ROOT
ATOM     11  CA  VAL A  97     -37.308 -29.560   0.219  1.00127.45     0.180 C 
ENDROOT
BRANCH  11  12
ATOM     12  CB  VAL A  97     -37.712 -31.031   0.090  1.00120.74     0.009 C 
ATOM     13  CG1 VAL A  97     -38.779 -31.415   1.095  1.00125.88     0.012 C 
ATOM     14  CG2 VAL A  97     -38.218 -31.280  -1.313  1.00109.33     0.012 C 
ENDBRANCH  11  12
END_RES VAL A  97
BEGIN_RES ASP A  98
REMARK  2 active torsions:
REMARK  status: ('A' for Active; 'I' for Inactive)
REMARK    5  A    between atoms: CA   and  CB  
REMARK    6  A    between atoms: CB   and  CG  
ROOT
ATOM     15  CA  ASP A  98     -37.776 -27.901   3.568  1.00121.51     0.186 C 
ENDROOT
BRANCH  15  16
ATOM     16  CB  ASP A  98     -37.062 -26.548   3.544  1.00133.15     0.147 C 
BRANCH  16  17
ATOM     17  CG  ASP A  98     -37.115 -25.883   2.181  1.00138.88     0.175 C 
ATOM     18  OD1 ASP A  98     -38.220 -25.497   1.741  1.00148.86    -0.648 OA
ATOM     19  OD2 ASP A  98     -36.045 -25.747   1.549  1.00136.05    -0.648 OA
ENDBRANCH  16  17
ENDBRANCH  15  16
END_RES ASP A  98
BEGIN_RES ILE A 168
REMARK  2 active torsions:
REMARK  status: ('A' for Active; 'I' for Inactive)
REMARK    7  A    between atoms: CA   and  CB  
REMARK    8  A    between atoms: CB   and  CG1 
ROOT
ATOM     20  CA  ILE A 168     -27.570 -13.292   3.032  1.00105.39     0.180 C 
ENDROOT
BRANCH  20  21
ATOM     21  CB  ILE A 168     -28.093 -13.472   1.597  1.00 97.36     0.013 C 
ATOM     22  CG2 ILE A 168     -29.547 -13.912   1.617  1.00 85.37     0.012 C 
BRANCH  21  23
ATOM     23  CG1 ILE A 168     -27.941 -12.175   0.805  1.00 87.02     0.002 C 
ATOM     24  CD1 ILE A 168     -28.301 -12.321  -0.650  1.00103.08     0.005 C 
ENDBRANCH  21  23
ENDBRANCH  20  21
END_RES ILE A 168
BEGIN_RES ILE A 172
REMARK  2 active torsions:
REMARK  status: ('A' for Active; 'I' for Inactive)
REMARK    9  A    between atoms: CA   and  CB  
REMARK   10  A    between atoms: CB   and  CG1 
ROOT
ATOM     25  CA  ILE A 172     -30.773 -16.881   6.932  1.00 83.45     0.180 C 
ENDROOT
BRANCH  25  26
ATOM     26  CB  ILE A 172     -30.728 -17.561   5.548  1.00 84.33     0.013 C 
ATOM     27  CG2 ILE A 172     -31.885 -18.539   5.393  1.00 83.90     0.012 C 
BRANCH  26  28
ATOM     28  CG1 ILE A 172     -30.768 -16.517   4.430  1.00 82.82     0.002 C 
ATOM     29  CD1 ILE A 172     -31.490 -16.981   3.179  1.00 83.58     0.005 C 
ENDBRANCH  26  28
ENDBRANCH  25  26
END_RES ILE A 172
BEGIN_RES TYR A 176
REMARK  3 active torsions:
REMARK  status: ('A' for Active; 'I' for Inactive)
REMARK   11  A    between atoms: CA   and  CB  
REMARK   12  A    between atoms: CB   and  CG  
REMARK   13  A    between atoms: CZ   and  OH  
ROOT
ATOM     30  CA  TYR A 176     -33.487 -21.009  10.309  1.00102.89     0.180 C 
ENDROOT
BRANCH  30  31
ATOM     31  CB  TYR A 176     -32.812 -21.233   8.952  1.00 95.23     0.073 C 
BRANCH  31  32
ATOM     32  CG  TYR A 176     -33.764 -21.682   7.864  1.00102.16    -0.056 A 
ATOM     33  CD1 TYR A 176     -34.434 -20.758   7.074  1.00107.08     0.010 A 
ATOM     34  CE1 TYR A 176     -35.301 -21.165   6.076  1.00109.98     0.037 A 
ATOM     35  CZ  TYR A 176     -35.504 -22.511   5.860  1.00104.47     0.065 A 
ATOM     36  CE2 TYR A 176     -34.852 -23.448   6.631  1.00114.31     0.037 A 
ATOM     37  CD2 TYR A 176     -33.988 -23.030   7.626  1.00113.84     0.010 A 
BRANCH  35  38
ATOM     38  OH  TYR A 176     -36.366 -22.921   4.871  1.00 89.93    -0.361 OA
ATOM     39  HH  TYR A 176     -36.045 -23.458   4.156  1.00  0.00     0.217 HD
ENDBRANCH  35  38
ENDBRANCH  31  32
ENDBRANCH  30  31
END_RES TYR A 176
BEGIN_RES PHE A 334
REMARK  2 active torsions:
REMARK  status: ('A' for Active; 'I' for Inactive)
REMARK   14  A    between atoms: CA   and  CB  
REMARK   15  A    between atoms: CB   and  CG  
ROOT
ATOM     40  CA  PHE A 334     -39.127 -19.063  -6.357  1.00 81.01     0.180 C 
ENDROOT
BRANCH  40  41
ATOM     41  CB  PHE A 334     -39.065 -17.547  -6.548  1.00 82.48     0.073 C 
BRANCH  41  42
ATOM     42  CG  PHE A 334     -37.672 -16.989  -6.454  1.00 98.57    -0.056 A 
ATOM     43  CD2 PHE A 334     -37.185 -16.493  -5.255  1.00104.24     0.007 A 
ATOM     44  CE2 PHE A 334     -35.901 -15.989  -5.167  1.00108.47     0.001 A 
ATOM     45  CZ  PHE A 334     -35.088 -15.977  -6.282  1.00100.35     0.000 A 
ATOM     46  CE1 PHE A 334     -35.558 -16.472  -7.480  1.00 98.08     0.001 A 
ATOM     47  CD1 PHE A 334     -36.843 -16.976  -7.563  1.00103.86     0.007 A 
ENDBRANCH  41  42
ENDBRANCH  40  41
END_RES PHE A 334
BEGIN_RES PHE A 335
REMARK  2 active torsions:
REMARK  status: ('A' for Active; 'I' for Inactive)
REMARK   16  A    between atoms: CA   and  CB  
REMARK   17  A    between atoms: CB   and  CG  
ROOT
ATOM     48  CA  PHE A 335     -38.518 -19.241  -2.614  1.00 85.14     0.180 C 
ENDROOT
BRANCH  48  49
ATOM     49  CB  PHE A 335     -39.168 -18.292  -1.604  1.00 80.71     0.073 C 
BRANCH  49  50
ATOM     50  CG  PHE A 335     -38.186 -17.420  -0.872  1.00 83.13    -0.056 A 
ATOM     51  CD2 PHE A 335     -38.141 -17.409   0.512  1.00 91.60     0.007 A 
ATOM     52  CE2 PHE A 335     -37.240 -16.610   1.185  1.00 97.60     0.001 A 
ATOM     53  CZ  PHE A 335     -36.368 -15.811   0.478  1.00 97.78     0.000 A 
ATOM     54  CE1 PHE A 335     -36.397 -15.813  -0.901  1.00 95.24     0.001 A 
ATOM     55  CD1 PHE A 335     -37.302 -16.614  -1.571  1.00 89.82     0.007 A 
ENDBRANCH  49  50
ENDBRANCH  48  49
END_RES PHE A 335
BEGIN_RES SER A 336
REMARK  2 active torsions:
REMARK  status: ('A' for Active; 'I' for Inactive)
REMARK   18  A    between atoms: CA   and  CB  
REMARK   19  A    between atoms: CB   and  OG  
ROOT
ATOM     56  CA  SER A 336     -39.180 -22.983  -2.559  1.00102.68     0.185 C 
ENDROOT
BRANCH  56  57
ATOM     57  CB  SER A 336     -40.564 -23.626  -2.601  1.00112.23     0.197 C 
BRANCH  57  58
ATOM     58  OG  SER A 336     -40.553 -24.821  -1.834  1.00126.83    -0.398 OA
ATOM     59  HG  SER A 336     -39.781 -25.329  -2.053  1.00  0.00     0.209 HD
ENDBRANCH  57  58
ENDBRANCH  56  57
END_RES SER A 336
BEGIN_RES LEU A 337
REMARK  2 active torsions:
REMARK  status: ('A' for Active; 'I' for Inactive)
REMARK   20  A    between atoms: CA   and  CB  
REMARK   21  A    between atoms: CB   and  CG  
ROOT
ATOM     60  CA  LEU A 337     -36.886 -23.683  -5.499  1.00120.73     0.176 C 
ENDROOT
BRANCH  60  61
ATOM     61  CB  LEU A 337     -37.281 -23.546  -6.971  1.00120.08     0.038 C 
BRANCH  61  62
ATOM     62  CG  LEU A 337     -37.661 -24.850  -7.676  1.00111.85    -0.020 C 
ATOM     63  CD2 LEU A 337     -36.878 -26.020  -7.098  1.00107.94     0.009 C 
ATOM     64  CD1 LEU A 337     -37.439 -24.744  -9.177  1.00107.35     0.009 C 
ENDBRANCH  61  62
ENDBRANCH  60  61
END_RES LEU A 337
BEGIN_RES PHE A 341
REMARK  2 active torsions:
REMARK  status: ('A' for Active; 'I' for Inactive)
REMARK   22  A    between atoms: CA   and  CB  
REMARK   23  A    between atoms: CB   and  CG  
ROOT
ATOM     65  CA  PHE A 341     -28.541 -18.547  -4.436  1.00133.44     0.180 C 
ENDROOT
BRANCH  65  66
ATOM     66  CB  PHE A 341     -29.475 -19.214  -3.424  1.00125.68     0.073 C 
BRANCH  66  67
ATOM     67  CG  PHE A 341     -29.463 -18.564  -2.071  1.00116.57    -0.056 A 
ATOM     68  CD1 PHE A 341     -29.606 -17.193  -1.945  1.00110.13     0.007 A 
ATOM     69  CE1 PHE A 341     -29.595 -16.592  -0.700  1.00108.78     0.001 A 
ATOM     70  CZ  PHE A 341     -29.441 -17.363   0.436  1.00110.64     0.000 A 
ATOM     71  CE2 PHE A 341     -29.299 -18.731   0.322  1.00119.85     0.001 A 
ATOM     72  CD2 PHE A 341     -29.311 -19.325  -0.925  1.00119.44     0.007 A 
ENDBRANCH  66  67
ENDBRANCH  65  66
END_RES PHE A 341
BEGIN_RES SER A 438
REMARK  2 active torsions:
REMARK  status: ('A' for Active; 'I' for Inactive)
REMARK   24  A    between atoms: CA   and  CB  
REMARK   25  A    between atoms: CB   and  OG  
ROOT
ATOM     73  CA  SER A 438     -31.508 -27.475   3.470  1.00131.63     0.200 C 
ENDROOT
BRANCH  73  74
ATOM     74  CB  SER A 438     -32.877 -26.840   3.708  1.00123.20     0.199 C 
BRANCH  74  75
ATOM     75  OG  SER A 438     -33.853 -27.412   2.858  1.00118.56    -0.398 OA
ATOM     76  HG  SER A 438     -33.453 -27.757   2.068  1.00  0.00     0.209 HD
ENDBRANCH  74  75
ENDBRANCH  73  74
END_RES SER A 438
BEGIN_RES SER A 439
REMARK  2 active torsions:
REMARK  status: ('A' for Active; 'I' for Inactive)
REMARK   26  A    between atoms: CA   and  CB  
REMARK   27  A    between atoms: CB   and  OG  
ROOT
ATOM     77  CA  SER A 439     -29.132 -26.088   6.093  1.00159.98     0.200 C 
ENDROOT
BRANCH  77  78
ATOM     78  CB  SER A 439     -29.265 -26.283   7.605  1.00158.86     0.199 C 
BRANCH  78  79
ATOM     79  OG  SER A 439     -30.340 -25.528   8.127  1.00158.32    -0.398 OA
ATOM     80  HG  SER A 439     -30.563 -24.804   7.555  1.00  0.00     0.209 HD
ENDBRANCH  78  79
ENDBRANCH  77  78
END_RES SER A 439
BEGIN_RES LEU A 443
REMARK  2 active torsions:
REMARK  status: ('A' for Active; 'I' for Inactive)
REMARK   28  A    between atoms: CA   and  CB  
REMARK   29  A    between atoms: CB   and  CG  
ROOT
ATOM     81  CA  LEU A 443     -23.715 -23.506   4.366  1.00121.76     0.177 C 
ENDROOT
BRANCH  81  82
ATOM     82  CB  LEU A 443     -23.373 -24.191   5.687  1.00125.60     0.038 C 
BRANCH  82  83
ATOM     83  CG  LEU A 443     -22.651 -23.352   6.737  1.00116.63    -0.020 C 
ATOM     84  CD1 LEU A 443     -22.793 -21.880   6.399  1.00120.10     0.009 C 
ATOM     85  CD2 LEU A 443     -23.199 -23.648   8.125  1.00107.05     0.009 C 
ENDBRANCH  82  83
ENDBRANCH  81  82
END_RES LEU A 443
BEGIN_RES THR A 497
REMARK  2 active torsions:
REMARK  status: ('A' for Active; 'I' for Inactive)
REMARK   30  A    between atoms: CA   and  CB  
REMARK   31  A    between atoms: CB   and  OG1 
ROOT
ATOM     86  CA  THR A 497     -33.849 -12.060   3.031  1.00129.91     0.205 C 
ENDROOT
BRANCH  86  87
ATOM     87  CB  THR A 497     -34.076 -13.505   3.465  1.00133.40     0.146 C 
ATOM     88  CG2 THR A 497     -33.008 -13.929   4.448  1.00129.89     0.042 C 
BRANCH  87  89
ATOM     89  OG1 THR A 497     -35.356 -13.629   4.092  1.00141.12    -0.393 OA
ATOM     90  HG1 THR A 497     -36.029 -13.582   3.424  1.00  0.00     0.210 HD
ENDBRANCH  87  89
ENDBRANCH  86  87
END_RES THR A 497
BEGIN_RES VAL A 501
REMARK  1 active torsions:
REMARK  status: ('A' for Active; 'I' for Inactive)
REMARK   32  A    between atoms: CA   and  CB  
ROOT
ATOM     91  CA  VAL A 501     -32.184 -12.633  -2.931  1.00 95.30     0.180 C 
ENDROOT
BRANCH  91  92
ATOM     92  CB  VAL A 501     -32.777 -13.859  -2.277  1.00 80.93     0.009 C 
ATOM     93  CG1 VAL A 501     -32.520 -15.084  -3.105  1.00 82.50     0.012 C 
ATOM     94  CG2 VAL A 501     -32.204 -14.037  -0.906  1.00 93.10     0.012 C 
ENDBRANCH  91  92
END_RES VAL A 501
ENDMDL
MODEL 2
REMARK VINA RESULT:      -8.5      1.016      1.941
REMARK  4 active torsions:
REMARK  status: ('A' for Active; 'I' for Inactive)
REMARK    1  A    between atoms: O_1  and  C_11 
REMARK    2  A    between atoms: C_4  and  C_6 
REMARK    3  A    between atoms: C_6  and  C_10 
REMARK    4  A    between atoms: C_6  and  C_11 
ROOT
ATOM      1  C   LIG d  11     -32.214 -21.205   3.119  0.00  0.00     0.176 C 
ENDROOT
BRANCH   1   2
ATOM      2  C   LIG d  11     -33.330 -20.789   2.099  0.00  0.00     0.081 C 
ATOM      3  N   LIG d  11     -34.567 -21.588   2.299  0.00  0.00     0.230 N 
ATOM      4  C   LIG d  11     -35.623 -21.217   1.340  0.00  0.00     0.129 C 
ATOM      5  H   LIG d  11     -34.925 -21.459   3.274  0.00  0.00     0.202 HD
ATOM      6  H   LIG d   1     -34.383 -22.605   2.159  0.00  0.00     0.202 HD
ATOM      7  C   LIG d  11     -36.005 -19.743   1.495  0.00  0.00     0.051 C 
ATOM      8  C   LIG d  11     -34.770 -18.872   1.274  0.00  0.00     0.011 C 
ATOM      9  C   LIG d  11     -33.669 -19.281   2.257  0.00  0.00     0.056 C 
ENDBRANCH   1   2
BRANCH   1  10
ATOM     10  C   LIG d  11     -30.825 -20.859   2.606  0.00  0.00    -0.028 A 
ATOM     11  C   LIG d  11     -29.774 -20.610   3.508  0.00  0.00     0.005 A 
ATOM     12  C   LIG d  11     -28.496 -20.298   3.032  0.00  0.00     0.000 A 
ATOM     13  C   LIG d  11     -28.255 -20.234   1.657  0.00  0.00     0.000 A 
ATOM     14  C   LIG d  11     -29.291 -20.479   0.754  0.00  0.00     0.000 A 
ATOM     15  C   LIG d  11     -30.571 -20.790   1.222  0.00  0.00     0.005 A 
ENDBRANCH   1  10
BRANCH   1  16
ATOM     16  C   LIG d  11     -32.208 -22.680   3.480  0.00  0.00     0.320 C 
ATOM     17  O   LIG d  11     -32.060 -23.537   2.620  0.00  0.00    -0.250 OA
BRANCH  16  18
ATOM     18  O   LIG d  11     -32.331 -23.036   4.785  0.00  0.00    -0.467 OA
ATOM     19  C   LIG d  11     -31.259 -23.126   5.647  0.00  0.00     0.280 C 
ENDBRANCH  16  18
ENDBRANCH   1  16
TORSDOF 4
BEGIN_RES TYR A  95
REMARK  3 active torsions:
REMARK  status: ('A' for Active; 'I' for Inactive)
REMARK    1  A    between atoms: CA   and  CB  
REMARK    2  A    between atoms: CB   and  CG  
REMARK    3  A    between atoms: CZ   and  OH  
ROOT
ATOM      1  CA  TYR A  95     -31.925 -28.740  -0.297  1.00133.41     0.180 C 
ENDROOT
BRANCH   1   2
ATOM      2  CB  TYR A  95     -30.798 -28.162  -1.153  1.00125.17     0.073 C 
BRANCH   2   3
ATOM      3  CG  TYR A  95     -30.846 -26.656  -1.311  1.00112.79    -0.056 A 
ATOM      4  CD2 TYR A  95     -31.088 -26.077  -2.549  1.00117.30     0.010 A 
ATOM      5  CE2 TYR A  95     -31.128 -24.703  -2.701  1.00 96.38     0.037 A 
ATOM      6  CZ  TYR A  95     -30.920 -23.891  -1.609  1.00 94.79     0.065 A 
ATOM      7  CE1 TYR A  95     -30.675 -24.440  -0.368  1.00101.57     0.037 A 
ATOM      8  CD1 TYR A  95     -30.639 -25.816  -0.225  1.00101.86     0.010 A 
BRANCH   6   9
ATOM      9  OH  TYR A  95     -30.957 -22.526  -1.761  1.00 92.45    -0.361 OA
ATOM     10  HH  TYR A  95     -30.849 -22.146  -2.625  1.00  0.00     0.217 HD
ENDBRANCH   6   9
ENDBRANCH   2   3
ENDBRANCH   1   2
END_RES TYR A  95
BEGIN_RES VAL A  97
REMARK  1 active torsions:
REMARK  status: ('A' for Active; 'I' for Inactive)
REMARK    4  A    between atoms: CA   and  CB  
ROOT
ATOM     11  CA  VAL A  97     -37.308 -29.560   0.219  1.00127.45     0.180 C 
ENDROOT
BRANCH  11  12
ATOM     12  CB  VAL A  97     -37.712 -31.031   0.090  1.00120.74     0.009 C 
ATOM     13  CG1 VAL A  97     -38.776 -31.416   1.098  1.00125.88     0.012 C 
ATOM     14  CG2 VAL A  97     -38.222 -31.279  -1.312  1.00109.33     0.012 C 
ENDBRANCH  11  12
END_RES VAL A  97
BEGIN_RES ASP A  98
REMARK  2 active torsions:
REMARK  status: ('A' for Active; 'I' for Inactive)
REMARK    5  A    between atoms: CA   and  CB  
REMARK    6  A    between atoms: CB   and  CG  
ROOT
ATOM     15  CA  ASP A  98     -37.776 -27.901   3.568  1.00121.51     0.186 C 
ENDROOT
BRANCH  15  16
ATOM     16  CB  ASP A  98     -37.062 -26.548   3.544  1.00133.15     0.147 C 
BRANCH  16  17
ATOM     17  CG  ASP A  98     -37.109 -25.886   2.179  1.00138.88     0.175 C 
ATOM     18  OD1 ASP A  98     -36.045 -25.764   1.532  1.00148.86    -0.648 OA
ATOM     19  OD2 ASP A  98     -38.214 -25.488   1.754  1.00136.05    -0.648 OA
ENDBRANCH  16  17
ENDBRANCH  15  16
END_RES ASP A  98
BEGIN_RES ILE A 168
REMARK  2 active torsions:
REMARK  status: ('A' for Active; 'I' for Inactive)
REMARK    7  A    between atoms: CA   and  CB  
REMARK    8  A    between atoms: CB   and  CG1 
ROOT
ATOM     20  CA  ILE A 168     -27.570 -13.292   3.032  1.00105.39     0.180 C 
ENDROOT
BRANCH  20  21
ATOM     21  CB  ILE A 168     -28.093 -13.472   1.597  1.00 97.36     0.013 C 
ATOM     22  CG2 ILE A 168     -29.567 -13.838   1.615  1.00 85.37     0.012 C 
BRANCH  21  23
ATOM     23  CG1 ILE A 168     -27.871 -12.199   0.782  1.00 87.02     0.002 C 
ATOM     24  CD1 ILE A 168     -28.380 -12.302  -0.632  1.00103.08     0.005 C 
ENDBRANCH  21  23
ENDBRANCH  20  21
END_RES ILE A 168
BEGIN_RES ILE A 172
REMARK  2 active torsions:
REMARK  status: ('A' for Active; 'I' for Inactive)
REMARK    9  A    between atoms: CA   and  CB  
REMARK   10  A    between atoms: CB   and  CG1 
ROOT
ATOM     25  CA  ILE A 172     -30.773 -16.881   6.932  1.00 83.45     0.180 C 
ENDROOT
BRANCH  25  26
ATOM     26  CB  ILE A 172     -30.728 -17.561   5.548  1.00 84.33     0.013 C 
ATOM     27  CG2 ILE A 172     -31.914 -18.500   5.373  1.00 83.90     0.012 C 
BRANCH  26  28
ATOM     28  CG1 ILE A 172     -30.715 -16.515   4.431  1.00 82.82     0.002 C 
ATOM     29  CD1 ILE A 172     -30.523 -17.098   3.044  1.00 83.58     0.005 C 
ENDBRANCH  26  28
ENDBRANCH  25  26
END_RES ILE A 172
BEGIN_RES TYR A 176
REMARK  3 active torsions:
REMARK  status: ('A' for Active; 'I' for Inactive)
REMARK   11  A    between atoms: CA   and  CB  
REMARK   12  A    between atoms: CB   and  CG  
REMARK   13  A    between atoms: CZ   and  OH  
ROOT
ATOM     30  CA  TYR A 176     -33.487 -21.009  10.309  1.00102.89     0.180 C 
ENDROOT
BRANCH  30  31
ATOM     31  CB  TYR A 176     -32.812 -21.233   8.952  1.00 95.23     0.073 C 
BRANCH  31  32
ATOM     32  CG  TYR A 176     -33.785 -21.492   7.822  1.00102.16    -0.056 A 
ATOM     33  CD1 TYR A 176     -34.433 -22.715   7.703  1.00107.08     0.010 A 
ATOM     34  CE1 TYR A 176     -35.326 -22.953   6.674  1.00109.98     0.037 A 
ATOM     35  CZ  TYR A 176     -35.580 -21.963   5.750  1.00104.47     0.065 A 
ATOM     36  CE2 TYR A 176     -34.948 -20.742   5.846  1.00114.31     0.037 A 
ATOM     37  CD2 TYR A 176     -34.057 -20.513   6.877  1.00113.84     0.010 A 
BRANCH  35  38
ATOM     38  OH  TYR A 176     -36.465 -22.195   4.725  1.00 89.93    -0.361 OA
ATOM     39  HH  TYR A 176     -36.799 -23.073   4.578  1.00  0.00     0.217 HD
ENDBRANCH  35  38
ENDBRANCH  31  32
ENDBRANCH  30  31
END_RES TYR A 176
BEGIN_RES PHE A 334
REMARK  2 active torsions:
REMARK  status: ('A' for Active; 'I' for Inactive)
REMARK   14  A    between atoms: CA   and  CB  
REMARK   15  A    between atoms: CB   and  CG  
ROOT
ATOM     40  CA  PHE A 334     -39.127 -19.063  -6.357  1.00 81.01     0.180 C 
ENDROOT
BRANCH  40  41
ATOM     41  CB  PHE A 334     -39.065 -17.547  -6.548  1.00 82.48     0.073 C 
BRANCH  41  42
ATOM     42  CG  PHE A 334     -37.673 -16.988  -6.445  1.00 98.57    -0.056 A 
ATOM     43  CD2 PHE A 334     -37.195 -16.490  -5.243  1.00104.24     0.007 A 
ATOM     44  CE2 PHE A 334     -35.912 -15.985  -5.147  1.00108.47     0.001 A 
ATOM     45  CZ  PHE A 334     -35.091 -15.974  -6.256  1.00100.35     0.000 A 
ATOM     46  CE1 PHE A 334     -35.553 -16.470  -7.457  1.00 98.08     0.001 A 
ATOM     47  CD1 PHE A 334     -36.836 -16.975  -7.549  1.00103.86     0.007 A 
ENDBRANCH  41  42
ENDBRANCH  40  41
END_RES PHE A 334
BEGIN_RES PHE A 335
REMARK  2 active torsions:
REMARK  status: ('A' for Active; 'I' for Inactive)
REMARK   16  A    between atoms: CA   and  CB  
REMARK   17  A    between atoms: CB   and  CG  
ROOT
ATOM     48  CA  PHE A 335     -38.518 -19.241  -2.614  1.00 85.14     0.180 C 
ENDROOT
BRANCH  48  49
ATOM     49  CB  PHE A 335     -39.168 -18.292  -1.604  1.00 80.71     0.073 C 
BRANCH  49  50
ATOM     50  CG  PHE A 335     -38.191 -17.387  -0.906  1.00 83.13    -0.056 A 
ATOM     51  CD2 PHE A 335     -38.422 -16.960   0.391  1.00 91.60     0.007 A 
ATOM     52  CE2 PHE A 335     -37.526 -16.131   1.034  1.00 97.60     0.001 A 
ATOM     53  CZ  PHE A 335     -36.383 -15.720   0.385  1.00 97.78     0.000 A 
ATOM     54  CE1 PHE A 335     -36.135 -16.140  -0.906  1.00 95.24     0.001 A 
ATOM     55  CD1 PHE A 335     -37.036 -16.970  -1.546  1.00 89.82     0.007 A 
ENDBRANCH  49  50
ENDBRANCH  48  49
END_RES PHE A 335
BEGIN_RES SER A 336
REMARK  2 active torsions:
REMARK  status: ('A' for Active; 'I' for Inactive)
REMARK   18  A    between atoms: CA   and  CB  
REMARK   19  A    between atoms: CB   and  OG  
ROOT
ATOM     56  CA  SER A 336     -39.180 -22.983  -2.559  1.00102.68     0.185 C 
ENDROOT
BRANCH  56  57
ATOM     57  CB  SER A 336     -40.564 -23.626  -2.601  1.00112.23     0.197 C 
BRANCH  57  58
ATOM     58  OG  SER A 336     -41.243 -23.366  -1.381  1.00126.83    -0.398 OA
ATOM     59  HG  SER A 336     -41.705 -24.148  -1.104  1.00  0.00     0.209 HD
ENDBRANCH  57  58
ENDBRANCH  56  57
END_RES SER A 336
BEGIN_RES LEU A 337
REMARK  2 active torsions:
REMARK  status: ('A' for Active; 'I' for Inactive)
REMARK   20  A    between atoms: CA   and  CB  
REMARK   21  A    between atoms: CB   and  CG  
ROOT
ATOM     60  CA  LEU A 337     -36.886 -23.683  -5.499  1.00120.73     0.176 C 
ENDROOT
BRANCH  60  61
ATOM     61  CB  LEU A 337     -37.281 -23.546  -6.971  1.00120.08     0.038 C 
BRANCH  61  62
ATOM     62  CG  LEU A 337     -37.670 -24.849  -7.673  1.00111.85    -0.020 C 
ATOM     63  CD2 LEU A 337     -36.897 -26.024  -7.091  1.00107.94     0.009 C 
ATOM     64  CD1 LEU A 337     -37.444 -24.749  -9.174  1.00107.35     0.009 C 
ENDBRANCH  61  62
ENDBRANCH  60  61
END_RES LEU A 337
BEGIN_RES PHE A 341
REMARK  2 active torsions:
REMARK  status: ('A' for Active; 'I' for Inactive)
REMARK   22  A    between atoms: CA   and  CB  
REMARK   23  A    between atoms: CB   and  CG  
ROOT
ATOM     65  CA  PHE A 341     -28.541 -18.547  -4.436  1.00133.44     0.180 C 
ENDROOT
BRANCH  65  66
ATOM     66  CB  PHE A 341     -29.475 -19.214  -3.424  1.00125.68     0.073 C 
BRANCH  66  67
ATOM     67  CG  PHE A 341     -29.883 -18.314  -2.294  1.00116.57    -0.056 A 
ATOM     68  CD1 PHE A 341     -29.050 -17.293  -1.868  1.00110.13     0.007 A 
ATOM     69  CE1 PHE A 341     -29.424 -16.463  -0.828  1.00108.78     0.001 A 
ATOM     70  CZ  PHE A 341     -30.640 -16.649  -0.201  1.00110.64     0.000 A 
ATOM     71  CE2 PHE A 341     -31.479 -17.663  -0.618  1.00119.85     0.001 A 
ATOM     72  CD2 PHE A 341     -31.099 -18.488  -1.658  1.00119.44     0.007 A 
ENDBRANCH  66  67
ENDBRANCH  65  66
END_RES PHE A 341
BEGIN_RES SER A 438
REMARK  2 active torsions:
REMARK  status: ('A' for Active; 'I' for Inactive)
REMARK   24  A    between atoms: CA   and  CB  
REMARK   25  A    between atoms: CB   and  OG  
ROOT
ATOM     73  CA  SER A 438     -31.508 -27.475   3.470  1.00131.63     0.200 C 
ENDROOT
BRANCH  73  74
ATOM     74  CB  SER A 438     -32.877 -26.840   3.708  1.00123.20     0.199 C 
BRANCH  74  75
ATOM     75  OG  SER A 438     -33.851 -27.404   2.850  1.00118.56    -0.398 OA
ATOM     76  HG  SER A 438     -33.752 -28.348   2.800  1.00  0.00     0.209 HD
ENDBRANCH  74  75
ENDBRANCH  73  74
END_RES SER A 438
BEGIN_RES SER A 439
REMARK  2 active torsions:
REMARK  status: ('A' for Active; 'I' for Inactive)
REMARK   26  A    between atoms: CA   and  CB  
REMARK   27  A    between atoms: CB   and  OG  
ROOT
ATOM     77  CA  SER A 439     -29.132 -26.088   6.093  1.00159.98     0.200 C 
ENDROOT
BRANCH  77  78
ATOM     78  CB  SER A 439     -29.265 -26.283   7.605  1.00158.86     0.199 C 
BRANCH  78  79
ATOM     79  OG  SER A 439     -30.345 -25.534   8.126  1.00158.32    -0.398 OA
ATOM     80  HG  SER A 439     -30.824 -25.092   7.435  1.00  0.00     0.209 HD
ENDBRANCH  78  79
ENDBRANCH  77  78
END_RES SER A 439
BEGIN_RES LEU A 443
REMARK  2 active torsions:
REMARK  status: ('A' for Active; 'I' for Inactive)
REMARK   28  A    between atoms: CA   and  CB  
REMARK   29  A    between atoms: CB   and  CG  
ROOT
ATOM     81  CA  LEU A 443     -23.715 -23.506   4.366  1.00121.76     0.177 C 
ENDROOT
BRANCH  81  82
ATOM     82  CB  LEU A 443     -23.373 -24.191   5.687  1.00125.60     0.038 C 
BRANCH  82  83
ATOM     83  CG  LEU A 443     -22.652 -23.352   6.737  1.00116.63    -0.020 C 
ATOM     84  CD1 LEU A 443     -22.795 -21.879   6.400  1.00120.10     0.009 C 
ATOM     85  CD2 LEU A 443     -23.199 -23.648   8.125  1.00107.05     0.009 C 
ENDBRANCH  82  83
ENDBRANCH  81  82
END_RES LEU A 443
BEGIN_RES THR A 497
REMARK  2 active torsions:
REMARK  status: ('A' for Active; 'I' for Inactive)
REMARK   30  A    between atoms: CA   and  CB  
REMARK   31  A    between atoms: CB   and  OG1 
ROOT
ATOM     86  CA  THR A 497     -33.849 -12.060   3.031  1.00129.91     0.205 C 
ENDROOT
BRANCH  86  87
ATOM     87  CB  THR A 497     -34.076 -13.505   3.465  1.00133.40     0.146 C 
ATOM     88  CG2 THR A 497     -33.124 -14.425   2.734  1.00129.89     0.042 C 
BRANCH  87  89
ATOM     89  OG1 THR A 497     -33.850 -13.631   4.872  1.00141.12    -0.393 OA
ATOM     90  HG1 THR A 497     -32.957 -13.922   5.014  1.00  0.00     0.210 HD
ENDBRANCH  87  89
ENDBRANCH  86  87
END_RES THR A 497
BEGIN_RES VAL A 501
REMARK  1 active torsions:
REMARK  status: ('A' for Active; 'I' for Inactive)
REMARK   32  A    between atoms: CA   and  CB  
ROOT
ATOM     91  CA  VAL A 501     -32.184 -12.633  -2.931  1.00 95.30     0.180 C 
ENDROOT
BRANCH  91  92
ATOM     92  CB  VAL A 501     -32.777 -13.859  -2.277  1.00 80.93     0.009 C 
ATOM     93  CG1 VAL A 501     -32.429 -15.098  -3.049  1.00 82.50     0.012 C 
ATOM     94  CG2 VAL A 501     -32.286 -13.977  -0.868  1.00 93.10     0.012 C 
ENDBRANCH  91  92
END_RES VAL A 501
ENDMDL
MODEL 3
REMARK VINA RESULT:      -8.4      0.731      2.437
REMARK  4 active torsions:
REMARK  status: ('A' for Active; 'I' for Inactive)
REMARK    1  A    between atoms: O_1  and  C_11 
REMARK    2  A    between atoms: C_4  and  C_6 
REMARK    3  A    between atoms: C_6  and  C_10 
REMARK    4  A    between atoms: C_6  and  C_11 
ROOT
ATOM      1  C   LIG d  11     -33.206 -21.566   0.998  0.00  0.00     0.176 C 
ENDROOT
BRANCH   1   2
ATOM      2  C   LIG d  11     -32.444 -21.474   2.366  0.00  0.00     0.081 C 
ATOM      3  N   LIG d  11     -32.748 -22.645   3.230  0.00  0.00     0.230 N 
ATOM      4  C   LIG d  11     -32.049 -22.569   4.525  0.00  0.00     0.129 C 
ATOM      5  H   LIG d  11     -32.478 -23.532   2.743  0.00  0.00     0.202 HD
ATOM      6  H   LIG d   1     -33.767 -22.698   3.446  0.00  0.00     0.202 HD
ATOM      7  C   LIG d  11     -30.531 -22.536   4.324  0.00  0.00     0.051 C 
ATOM      8  C   LIG d  11     -30.161 -21.332   3.458  0.00  0.00     0.011 C 
ATOM      9  C   LIG d  11     -30.911 -21.406   2.125  0.00  0.00     0.056 C 
ENDBRANCH   1   2
BRANCH   1  10
ATOM     10  C   LIG d  11     -33.285 -20.215   0.307  0.00  0.00    -0.028 A 
ATOM     11  C   LIG d  11     -33.173 -20.123  -1.093  0.00  0.00     0.005 A 
ATOM     12  C   LIG d  11     -33.253 -18.877  -1.726  0.00  0.00     0.000 A 
ATOM     13  C   LIG d  11     -33.447 -17.717  -0.972  0.00  0.00     0.000 A 
ATOM     14  C   LIG d  11     -33.561 -17.798   0.418  0.00  0.00     0.000 A 
ATOM     15  C   LIG d  11     -33.480 -19.038   1.057  0.00  0.00     0.005 A 
ENDBRANCH   1  10
BRANCH   1  16
ATOM     16  C   LIG d  11     -34.622 -22.106   1.099  0.00  0.00     0.320 C 
ATOM     17  O   LIG d  11     -35.302 -21.905   2.096  0.00  0.00    -0.250 OA
BRANCH  16  18
ATOM     18  O   LIG d  11     -35.140 -22.788   0.045  0.00  0.00    -0.467 OA
ATOM     19  C   LIG d  11     -34.402 -23.661  -0.725  0.00  0.00     0.280 C 
ENDBRANCH  16  18
ENDBRANCH   1  16
TORSDOF 4
BEGIN_RES TYR A  95
REMARK  3 active torsions:
REMARK  status: ('A' for Active; 'I' for Inactive)
REMARK    1  A    between atoms: CA   and  CB  
REMARK    2  A    between atoms: CB   and  CG  
REMARK    3  A    between atoms: CZ   and  OH  
ROOT
ATOM      1  CA  TYR A  95     -31.925 -28.740  -0.297  1.00133.41     0.180 C 
ENDROOT
BRANCH   1   2
ATOM      2  CB  TYR A  95     -30.798 -28.162  -1.153  1.00125.17     0.073 C 
BRANCH   2   3
ATOM      3  CG  TYR A  95     -30.803 -26.650  -1.251  1.00112.79    -0.056 A 
ATOM      4  CD2 TYR A  95     -30.993 -26.016  -2.470  1.00117.30     0.010 A 
ATOM      5  CE2 TYR A  95     -30.994 -24.637  -2.568  1.00 96.38     0.037 A 
ATOM      6  CZ  TYR A  95     -30.799 -23.875  -1.438  1.00 94.79     0.065 A 
ATOM      7  CE1 TYR A  95     -30.605 -24.479  -0.214  1.00101.57     0.037 A 
ATOM      8  CD1 TYR A  95     -30.608 -25.860  -0.126  1.00101.86     0.010 A 
BRANCH   6   9
ATOM      9  OH  TYR A  95     -30.797 -22.504  -1.535  1.00 92.45    -0.361 OA
ATOM     10  HH  TYR A  95     -30.414 -21.984  -0.838  1.00  0.00     0.217 HD
ENDBRANCH   6   9
ENDBRANCH   2   3
ENDBRANCH   1   2
END_RES TYR A  95
BEGIN_RES VAL A  97
REMARK  1 active torsions:
REMARK  status: ('A' for Active; 'I' for Inactive)
REMARK    4  A    between atoms: CA   and  CB  
ROOT
ATOM     11  CA  VAL A  97     -37.308 -29.560   0.219  1.00127.45     0.180 C 
ENDROOT
BRANCH  11  12
ATOM     12  CB  VAL A  97     -37.712 -31.031   0.090  1.00120.74     0.009 C 
ATOM     13  CG1 VAL A  97     -38.779 -31.415   1.095  1.00125.88     0.012 C 
ATOM     14  CG2 VAL A  97     -38.219 -31.280  -1.313  1.00109.33     0.012 C 
ENDBRANCH  11  12
END_RES VAL A  97
BEGIN_RES ASP A  98
REMARK  2 active torsions:
REMARK  status: ('A' for Active; 'I' for Inactive)
REMARK    5  A    between atoms: CA   and  CB  
REMARK    6  A    between atoms: CB   and  CG  
ROOT
ATOM     15  CA  ASP A  98     -37.776 -27.901   3.568  1.00121.51     0.186 C 
ENDROOT
BRANCH  15  16
ATOM     16  CB  ASP A  98     -37.062 -26.548   3.544  1.00133.15     0.147 C 
BRANCH  16  17
ATOM     17  CG  ASP A  98     -37.114 -25.884   2.181  1.00138.88     0.175 C 
ATOM     18  OD1 ASP A  98     -38.217 -25.485   1.746  1.00148.86    -0.648 OA
ATOM     19  OD2 ASP A  98     -36.046 -25.760   1.543  1.00136.05    -0.648 OA
ENDBRANCH  16  17
ENDBRANCH  15  16
END_RES ASP A  98
BEGIN_RES ILE A 168
REMARK  2 active torsions:
REMARK  status: ('A' for Active; 'I' for Inactive)
REMARK    7  A    between atoms: CA   and  CB  
REMARK    8  A    between atoms: CB   and  CG1 
ROOT
ATOM     20  CA  ILE A 168     -27.570 -13.292   3.032  1.00105.39     0.180 C 
ENDROOT
BRANCH  20  21
ATOM     21  CB  ILE A 168     -28.093 -13.472   1.597  1.00 97.36     0.013 C 
ATOM     22  CG2 ILE A 168     -29.557 -13.877   1.616  1.00 85.37     0.012 C 
BRANCH  21  23
ATOM     23  CG1 ILE A 168     -27.908 -12.186   0.794  1.00 87.02     0.002 C 
ATOM     24  CD1 ILE A 168     -28.292 -12.329  -0.655  1.00103.08     0.005 C 
ENDBRANCH  21  23
ENDBRANCH  20  21
END_RES ILE A 168
BEGIN_RES ILE A 172
REMARK  2 active torsions:
REMARK  status: ('A' for Active; 'I' for Inactive)
REMARK    9  A    between atoms: CA   and  CB  
REMARK   10  A    between atoms: CB   and  CG1 
ROOT
ATOM     25  CA  ILE A 172     -30.773 -16.881   6.932  1.00 83.45     0.180 C 
ENDROOT
BRANCH  25  26
ATOM     26  CB  ILE A 172     -30.728 -17.561   5.548  1.00 84.33     0.013 C 
ATOM     27  CG2 ILE A 172     -31.901 -18.517   5.382  1.00 83.90     0.012 C 
BRANCH  26  28
ATOM     28  CG1 ILE A 172     -30.738 -16.516   4.431  1.00 82.82     0.002 C 
ATOM     29  CD1 ILE A 172     -31.569 -16.911   3.225  1.00 83.58     0.005 C 
ENDBRANCH  26  28
ENDBRANCH  25  26
END_RES ILE A 172
BEGIN_RES TYR A 176
REMARK  3 active torsions:
REMARK  status: ('A' for Active; 'I' for Inactive)
REMARK   11  A    between atoms: CA   and  CB  
REMARK   12  A    between atoms: CB   and  CG  
REMARK   13  A    between atoms: CZ   and  OH  
ROOT
ATOM     30  CA  TYR A 176     -33.487 -21.009  10.309  1.00102.89     0.180 C 
ENDROOT
BRANCH  30  31
ATOM     31  CB  TYR A 176     -32.812 -21.233   8.952  1.00 95.23     0.073 C 
BRANCH  31  32
ATOM     32  CG  TYR A 176     -33.777 -21.587   7.842  1.00102.16    -0.056 A 
ATOM     33  CD1 TYR A 176     -34.264 -20.614   6.979  1.00107.08     0.010 A 
ATOM     34  CE1 TYR A 176     -35.143 -20.935   5.961  1.00109.98     0.037 A 
ATOM     35  CZ  TYR A 176     -35.544 -22.244   5.796  1.00104.47     0.065 A 
ATOM     36  CE2 TYR A 176     -35.077 -23.228   6.640  1.00114.31     0.037 A 
ATOM     37  CD2 TYR A 176     -34.199 -22.896   7.655  1.00113.84     0.010 A 
BRANCH  35  38
ATOM     38  OH  TYR A 176     -36.419 -22.568   4.787  1.00 89.93    -0.361 OA
ATOM     39  HH  TYR A 176     -37.162 -23.133   4.969  1.00  0.00     0.217 HD
ENDBRANCH  35  38
ENDBRANCH  31  32
ENDBRANCH  30  31
END_RES TYR A 176
BEGIN_RES PHE A 334
REMARK  2 active torsions:
REMARK  status: ('A' for Active; 'I' for Inactive)
REMARK   14  A    between atoms: CA   and  CB  
REMARK   15  A    between atoms: CB   and  CG  
ROOT
ATOM     40  CA  PHE A 334     -39.127 -19.063  -6.357  1.00 81.01     0.180 C 
ENDROOT
BRANCH  40  41
ATOM     41  CB  PHE A 334     -39.065 -17.547  -6.548  1.00 82.48     0.073 C 
BRANCH  41  42
ATOM     42  CG  PHE A 334     -37.671 -16.990  -6.464  1.00 98.57    -0.056 A 
ATOM     43  CD2 PHE A 334     -37.175 -16.497  -5.267  1.00104.24     0.007 A 
ATOM     44  CE2 PHE A 334     -35.889 -15.994  -5.188  1.00108.47     0.001 A 
ATOM     45  CZ  PHE A 334     -35.085 -15.981  -6.310  1.00100.35     0.000 A 
ATOM     46  CE1 PHE A 334     -35.565 -16.472  -7.505  1.00 98.08     0.001 A 
ATOM     47  CD1 PHE A 334     -36.851 -16.975  -7.579  1.00103.86     0.007 A 
ENDBRANCH  41  42
ENDBRANCH  40  41
END_RES PHE A 334
BEGIN_RES PHE A 335
REMARK  2 active torsions:
REMARK  status: ('A' for Active; 'I' for Inactive)
REMARK   16  A    between atoms: CA   and  CB  
REMARK   17  A    between atoms: CB   and  CG  
ROOT
ATOM     48  CA  PHE A 335     -38.518 -19.241  -2.614  1.00 85.14     0.180 C 
ENDROOT
BRANCH  48  49
ATOM     49  CB  PHE A 335     -39.168 -18.292  -1.604  1.00 80.71     0.073 C 
BRANCH  49  50
ATOM     50  CG  PHE A 335     -38.193 -17.375  -0.919  1.00 83.13    -0.056 A 
ATOM     51  CD2 PHE A 335     -37.972 -17.467   0.445  1.00 91.60     0.007 A 
ATOM     52  CE2 PHE A 335     -37.077 -16.627   1.075  1.00 97.60     0.001 A 
ATOM     53  CZ  PHE A 335     -36.389 -15.684   0.345  1.00 97.78     0.000 A 
ATOM     54  CE1 PHE A 335     -36.594 -15.581  -1.015  1.00 95.24     0.001 A 
ATOM     55  CD1 PHE A 335     -37.492 -16.424  -1.642  1.00 89.82     0.007 A 
ENDBRANCH  49  50
ENDBRANCH  48  49
END_RES PHE A 335
BEGIN_RES SER A 336
REMARK  2 active torsions:
REMARK  status: ('A' for Active; 'I' for Inactive)
REMARK   18  A    between atoms: CA   and  CB  
REMARK   19  A    between atoms: CB   and  OG  
ROOT
ATOM     56  CA  SER A 336     -39.180 -22.983  -2.559  1.00102.68     0.185 C 
ENDROOT
BRANCH  56  57
ATOM     57  CB  SER A 336     -40.564 -23.626  -2.601  1.00112.23     0.197 C 
BRANCH  57  58
ATOM     58  OG  SER A 336     -40.552 -24.823  -1.836  1.00126.83    -0.398 OA
ATOM     59  HG  SER A 336     -39.876 -25.402  -2.167  1.00  0.00     0.209 HD
ENDBRANCH  57  58
ENDBRANCH  56  57
END_RES SER A 336
BEGIN_RES LEU A 337
REMARK  2 active torsions:
REMARK  status: ('A' for Active; 'I' for Inactive)
REMARK   20  A    between atoms: CA   and  CB  
REMARK   21  A    between atoms: CB   and  CG  
ROOT
ATOM     60  CA  LEU A 337     -36.886 -23.683  -5.499  1.00120.73     0.176 C 
ENDROOT
BRANCH  60  61
ATOM     61  CB  LEU A 337     -37.281 -23.546  -6.971  1.00120.08     0.038 C 
BRANCH  61  62
ATOM     62  CG  LEU A 337     -37.661 -24.850  -7.676  1.00111.85    -0.020 C 
ATOM     63  CD2 LEU A 337     -36.877 -26.020  -7.098  1.00107.94     0.009 C 
ATOM     64  CD1 LEU A 337     -37.439 -24.744  -9.177  1.00107.35     0.009 C 
ENDBRANCH  61  62
ENDBRANCH  60  61
END_RES LEU A 337
BEGIN_RES PHE A 341
REMARK  2 active torsions:
REMARK  status: ('A' for Active; 'I' for Inactive)
REMARK   22  A    between atoms: CA   and  CB  
REMARK   23  A    between atoms: CB   and  CG  
ROOT
ATOM     65  CA  PHE A 341     -28.541 -18.547  -4.436  1.00133.44     0.180 C 
ENDROOT
BRANCH  65  66
ATOM     66  CB  PHE A 341     -29.475 -19.214  -3.424  1.00125.68     0.073 C 
BRANCH  66  67
ATOM     67  CG  PHE A 341     -29.560 -18.490  -2.112  1.00116.57    -0.056 A 
ATOM     68  CD1 PHE A 341     -29.541 -17.106  -2.066  1.00110.13     0.007 A 
ATOM     69  CE1 PHE A 341     -29.619 -16.438  -0.858  1.00108.78     0.001 A 
ATOM     70  CZ  PHE A 341     -29.718 -17.152   0.319  1.00110.64     0.000 A 
ATOM     71  CE2 PHE A 341     -29.739 -18.532   0.286  1.00119.85     0.001 A 
ATOM     72  CD2 PHE A 341     -29.661 -19.193  -0.924  1.00119.44     0.007 A 
ENDBRANCH  66  67
ENDBRANCH  65  66
END_RES PHE A 341
BEGIN_RES SER A 438
REMARK  2 active torsions:
REMARK  status: ('A' for Active; 'I' for Inactive)
REMARK   24  A    between atoms: CA   and  CB  
REMARK   25  A    between atoms: CB   and  OG  
ROOT
ATOM     73  CA  SER A 438     -31.508 -27.475   3.470  1.00131.63     0.200 C 
ENDROOT
BRANCH  73  74
ATOM     74  CB  SER A 438     -32.877 -26.840   3.708  1.00123.20     0.199 C 
BRANCH  74  75
ATOM     75  OG  SER A 438     -33.853 -27.412   2.858  1.00118.56    -0.398 OA
ATOM     76  HG  SER A 438     -34.372 -26.738   2.436  1.00  0.00     0.209 HD
ENDBRANCH  74  75
ENDBRANCH  73  74
END_RES SER A 438
BEGIN_RES SER A 439
REMARK  2 active torsions:
REMARK  status: ('A' for Active; 'I' for Inactive)
REMARK   26  A    between atoms: CA   and  CB  
REMARK   27  A    between atoms: CB   and  OG  
ROOT
ATOM     77  CA  SER A 439     -29.132 -26.088   6.093  1.00159.98     0.200 C 
ENDROOT
BRANCH  77  78
ATOM     78  CB  SER A 439     -29.265 -26.283   7.605  1.00158.86     0.199 C 
BRANCH  78  79
ATOM     79  OG  SER A 439     -30.341 -25.530   8.127  1.00158.32    -0.398 OA
ATOM     80  HG  SER A 439     -31.084 -25.533   7.534  1.00  0.00     0.209 HD
ENDBRANCH  78  79
ENDBRANCH  77  78
END_RES SER A 439
BEGIN_RES LEU A 443
REMARK  2 active torsions:
REMARK  status: ('A' for Active; 'I' for Inactive)
REMARK   28  A    between atoms: CA   and  CB  
REMARK   29  A    between atoms: CB   and  CG  
ROOT
ATOM     81  CA  LEU A 443     -23.715 -23.506   4.366  1.00121.76     0.177 C 
ENDROOT
BRANCH  81  82
ATOM     82  CB  LEU A 443     -23.373 -24.191   5.687  1.00125.60     0.038 C 
BRANCH  82  83
ATOM     83  CG  LEU A 443     -22.649 -23.353   6.736  1.00116.63    -0.020 C 
ATOM     84  CD1 LEU A 443     -22.790 -21.880   6.398  1.00120.10     0.009 C 
ATOM     85  CD2 LEU A 443     -23.195 -23.648   8.124  1.00107.05     0.009 C 
ENDBRANCH  82  83
ENDBRANCH  81  82
END_RES LEU A 443
BEGIN_RES THR A 497
REMARK  2 active torsions:
REMARK  status: ('A' for Active; 'I' for Inactive)
REMARK   30  A    between atoms: CA   and  CB  
REMARK   31  A    between atoms: CB   and  OG1 
ROOT
ATOM     86  CA  THR A 497     -33.849 -12.060   3.031  1.00129.91     0.205 C 
ENDROOT
BRANCH  86  87
ATOM     87  CB  THR A 497     -34.076 -13.505   3.465  1.00133.40     0.146 C 
ATOM     88  CG2 THR A 497     -33.024 -13.920   4.468  1.00129.89     0.042 C 
BRANCH  87  89
ATOM     89  OG1 THR A 497     -35.366 -13.634   4.070  1.00141.12    -0.393 OA
ATOM     90  HG1 THR A 497     -35.280 -13.494   5.005  1.00  0.00     0.210 HD
ENDBRANCH  87  89
ENDBRANCH  86  87
END_RES THR A 497
BEGIN_RES VAL A 501
REMARK  1 active torsions:
REMARK  status: ('A' for Active; 'I' for Inactive)
REMARK   32  A    between atoms: CA   and  CB  
ROOT
ATOM     91  CA  VAL A 501     -32.184 -12.633  -2.931  1.00 95.30     0.180 C 
ENDROOT
BRANCH  91  92
ATOM     92  CB  VAL A 501     -32.777 -13.859  -2.277  1.00 80.93     0.009 C 
ATOM     93  CG1 VAL A 501     -32.513 -15.086  -3.101  1.00 82.50     0.012 C 
ATOM     94  CG2 VAL A 501     -32.210 -14.033  -0.903  1.00 93.10     0.012 C 
ENDBRANCH  91  92
END_RES VAL A 501
ENDMDL
MODEL 4
REMARK VINA RESULT:      -8.4      1.228      2.646
REMARK  4 active torsions:
REMARK  status: ('A' for Active; 'I' for Inactive)
REMARK    1  A    between atoms: O_1  and  C_11 
REMARK    2  A    between atoms: C_4  and  C_6 
REMARK    3  A    between atoms: C_6  and  C_10 
REMARK    4  A    between atoms: C_6  and  C_11 
ROOT
ATOM      1  C   LIG d  11     -35.026 -20.563   1.905  0.00  0.00     0.176 C 
ENDROOT
BRANCH   1   2
ATOM      2  C   LIG d  11     -36.591 -20.588   1.991  0.00  0.00     0.081 C 
ATOM      3  N   LIG d  11     -37.105 -21.982   2.040  0.00  0.00     0.230 N 
ATOM      4  C   LIG d  11     -38.576 -22.025   2.110  0.00  0.00     0.129 C 
ATOM      5  H   LIG d  11     -36.705 -22.484   2.868  0.00  0.00     0.202 HD
ATOM      6  H   LIG d   1     -36.832 -22.513   1.185  0.00  0.00     0.202 HD
ATOM      7  C   LIG d  11     -39.083 -21.310   3.365  0.00  0.00     0.051 C 
ATOM      8  C   LIG d  11     -38.602 -19.860   3.352  0.00  0.00     0.011 C 
ATOM      9  C   LIG d  11     -37.074 -19.825   3.255  0.00  0.00     0.056 C 
ENDBRANCH   1   2
BRANCH   1  10
ATOM     10  C   LIG d  11     -34.539 -19.675   0.770  0.00  0.00    -0.028 A 
ATOM     11  C   LIG d  11     -33.395 -18.872   0.935  0.00  0.00     0.005 A 
ATOM     12  C   LIG d  11     -32.946 -18.061  -0.114  0.00  0.00     0.000 A 
ATOM     13  C   LIG d  11     -33.631 -18.046  -1.332  0.00  0.00     0.000 A 
ATOM     14  C   LIG d  11     -34.766 -18.841  -1.505  0.00  0.00     0.000 A 
ATOM     15  C   LIG d  11     -35.221 -19.652  -0.462  0.00  0.00     0.005 A 
ENDBRANCH   1  10
BRANCH   1  16
ATOM     16  C   LIG d  11     -34.382 -21.925   1.721  0.00  0.00     0.320 C 
ATOM     17  O   LIG d  11     -34.356 -22.737   2.636  0.00  0.00    -0.250 OA
BRANCH  16  18
ATOM     18  O   LIG d  11     -33.864 -22.247   0.507  0.00  0.00    -0.467 OA
ATOM     19  C   LIG d  11     -34.314 -23.310  -0.248  0.00  0.00     0.280 C 
ENDBRANCH  16  18
ENDBRANCH   1  16
TORSDOF 4
BEGIN_RES TYR A  95
REMARK  3 active torsions:
REMARK  status: ('A' for Active; 'I' for Inactive)
REMARK    1  A    between atoms: CA   and  CB  
REMARK    2  A    between atoms: CB   and  CG  
REMARK    3  A    between atoms: CZ   and  OH  
ROOT
ATOM      1  CA  TYR A  95     -31.925 -28.740  -0.297  1.00133.41     0.180 C 
ENDROOT
BRANCH   1   2
ATOM      2  CB  TYR A  95     -30.798 -28.162  -1.153  1.00125.17     0.073 C 
BRANCH   2   3
ATOM      3  CG  TYR A  95     -30.825 -26.653  -1.281  1.00112.79    -0.056 A 
ATOM      4  CD2 TYR A  95     -31.031 -26.046  -2.512  1.00117.30     0.010 A 
ATOM      5  CE2 TYR A  95     -31.051 -24.669  -2.637  1.00 96.38     0.037 A 
ATOM      6  CZ  TYR A  95     -30.861 -23.882  -1.525  1.00 94.79     0.065 A 
ATOM      7  CE1 TYR A  95     -30.652 -24.458  -0.290  1.00101.57     0.037 A 
ATOM      8  CD1 TYR A  95     -30.635 -25.837  -0.174  1.00101.86     0.010 A 
BRANCH   6   9
ATOM      9  OH  TYR A  95     -30.879 -22.514  -1.649  1.00 92.45    -0.361 OA
ATOM     10  HH  TYR A  95     -31.039 -21.974  -0.883  1.00  0.00     0.217 HD
ENDBRANCH   6   9
ENDBRANCH   2   3
ENDBRANCH   1   2
END_RES TYR A  95
BEGIN_RES VAL A  97
REMARK  1 active torsions:
REMARK  status: ('A' for Active; 'I' for Inactive)
REMARK    4  A    between atoms: CA   and  CB  
ROOT
ATOM     11  CA  VAL A  97     -37.308 -29.560   0.219  1.00127.45     0.180 C 
ENDROOT
BRANCH  11  12
ATOM     12  CB  VAL A  97     -37.712 -31.031   0.090  1.00120.74     0.009 C 
ATOM     13  CG1 VAL A  97     -38.776 -31.416   1.098  1.00125.88     0.012 C 
ATOM     14  CG2 VAL A  97     -38.223 -31.279  -1.311  1.00109.33     0.012 C 
ENDBRANCH  11  12
END_RES VAL A  97
BEGIN_RES ASP A  98
REMARK  2 active torsions:
REMARK  status: ('A' for Active; 'I' for Inactive)
REMARK    5  A    between atoms: CA   and  CB  
REMARK    6  A    between atoms: CB   and  CG  
ROOT
ATOM     15  CA  ASP A  98     -37.776 -27.901   3.568  1.00121.51     0.186 C 
ENDROOT
BRANCH  15  16
ATOM     16  CB  ASP A  98     -37.062 -26.548   3.544  1.00133.15     0.147 C 
BRANCH  16  17
ATOM     17  CG  ASP A  98     -37.558 -25.645   2.430  1.00138.88     0.175 C 
ATOM     18  OD1 ASP A  98     -38.791 -25.494   2.281  1.00148.86    -0.648 OA
ATOM     19  OD2 ASP A  98     -36.711 -25.083   1.703  1.00136.05    -0.648 OA
ENDBRANCH  16  17
ENDBRANCH  15  16
END_RES ASP A  98
BEGIN_RES ILE A 168
REMARK  2 active torsions:
REMARK  status: ('A' for Active; 'I' for Inactive)
REMARK    7  A    between atoms: CA   and  CB  
REMARK    8  A    between atoms: CB   and  CG1 
ROOT
ATOM     20  CA  ILE A 168     -27.570 -13.292   3.032  1.00105.39     0.180 C 
ENDROOT
BRANCH  20  21
ATOM     21  CB  ILE A 168     -28.093 -13.472   1.597  1.00 97.36     0.013 C 
ATOM     22  CG2 ILE A 168     -29.544 -13.919   1.617  1.00 85.37     0.012 C 
BRANCH  21  23
ATOM     23  CG1 ILE A 168     -27.949 -12.173   0.807  1.00 87.02     0.002 C 
ATOM     24  CD1 ILE A 168     -28.308 -12.318  -0.648  1.00103.08     0.005 C 
ENDBRANCH  21  23
ENDBRANCH  20  21
END_RES ILE A 168
BEGIN_RES ILE A 172
REMARK  2 active torsions:
REMARK  status: ('A' for Active; 'I' for Inactive)
REMARK    9  A    between atoms: CA   and  CB  
REMARK   10  A    between atoms: CB   and  CG1 
ROOT
ATOM     25  CA  ILE A 172     -30.773 -16.881   6.932  1.00 83.45     0.180 C 
ENDROOT
BRANCH  25  26
ATOM     26  CB  ILE A 172     -30.728 -17.561   5.548  1.00 84.33     0.013 C 
ATOM     27  CG2 ILE A 172     -31.902 -18.517   5.382  1.00 83.90     0.012 C 
BRANCH  26  28
ATOM     28  CG1 ILE A 172     -30.737 -16.516   4.431  1.00 82.82     0.002 C 
ATOM     29  CD1 ILE A 172     -31.534 -16.929   3.207  1.00 83.58     0.005 C 
ENDBRANCH  26  28
ENDBRANCH  25  26
END_RES ILE A 172
BEGIN_RES TYR A 176
REMARK  3 active torsions:
REMARK  status: ('A' for Active; 'I' for Inactive)
REMARK   11  A    between atoms: CA   and  CB  
REMARK   12  A    between atoms: CB   and  CG  
REMARK   13  A    between atoms: CZ   and  OH  
ROOT
ATOM     30  CA  TYR A 176     -33.487 -21.009  10.309  1.00102.89     0.180 C 
ENDROOT
BRANCH  30  31
ATOM     31  CB  TYR A 176     -32.812 -21.233   8.952  1.00 95.23     0.073 C 
BRANCH  31  32
ATOM     32  CG  TYR A 176     -33.765 -21.676   7.863  1.00102.16    -0.056 A 
ATOM     33  CD1 TYR A 176     -34.368 -20.751   7.020  1.00107.08     0.010 A 
ATOM     34  CE1 TYR A 176     -35.235 -21.153   6.021  1.00109.98     0.037 A 
ATOM     35  CZ  TYR A 176     -35.508 -22.494   5.855  1.00104.47     0.065 A 
ATOM     36  CE2 TYR A 176     -34.923 -23.431   6.679  1.00114.31     0.037 A 
ATOM     37  CD2 TYR A 176     -34.058 -23.019   7.675  1.00113.84     0.010 A 
BRANCH  35  38
ATOM     38  OH  TYR A 176     -36.371 -22.899   4.865  1.00 89.93    -0.361 OA
ATOM     39  HH  TYR A 176     -36.645 -22.282   4.196  1.00  0.00     0.217 HD
ENDBRANCH  35  38
ENDBRANCH  31  32
ENDBRANCH  30  31
END_RES TYR A 176
BEGIN_RES PHE A 334
REMARK  2 active torsions:
REMARK  status: ('A' for Active; 'I' for Inactive)
REMARK   14  A    between atoms: CA   and  CB  
REMARK   15  A    between atoms: CB   and  CG  
ROOT
ATOM     40  CA  PHE A 334     -39.127 -19.063  -6.357  1.00 81.01     0.180 C 
ENDROOT
BRANCH  40  41
ATOM     41  CB  PHE A 334     -39.065 -17.547  -6.548  1.00 82.48     0.073 C 
BRANCH  41  42
ATOM     42  CG  PHE A 334     -37.673 -16.988  -6.448  1.00 98.57    -0.056 A 
ATOM     43  CD2 PHE A 334     -37.190 -16.495  -5.247  1.00104.24     0.007 A 
ATOM     44  CE2 PHE A 334     -35.906 -15.990  -5.154  1.00108.47     0.001 A 
ATOM     45  CZ  PHE A 334     -35.090 -15.975  -6.266  1.00100.35     0.000 A 
ATOM     46  CE1 PHE A 334     -35.556 -16.467  -7.467  1.00 98.08     0.001 A 
ATOM     47  CD1 PHE A 334     -36.840 -16.972  -7.555  1.00103.86     0.007 A 
ENDBRANCH  41  42
ENDBRANCH  40  41
END_RES PHE A 334
BEGIN_RES PHE A 335
REMARK  2 active torsions:
REMARK  status: ('A' for Active; 'I' for Inactive)
REMARK   16  A    between atoms: CA   and  CB  
REMARK   17  A    between atoms: CB   and  CG  
ROOT
ATOM     48  CA  PHE A 335     -38.518 -19.241  -2.614  1.00 85.14     0.180 C 
ENDROOT
BRANCH  48  49
ATOM     49  CB  PHE A 335     -39.168 -18.292  -1.604  1.00 80.71     0.073 C 
BRANCH  49  50
ATOM     50  CG  PHE A 335     -38.188 -17.408  -0.884  1.00 83.13    -0.056 A 
ATOM     51  CD2 PHE A 335     -37.979 -17.543   0.478  1.00 91.60     0.007 A 
ATOM     52  CE2 PHE A 335     -37.079 -16.733   1.140  1.00 97.60     0.001 A 
ATOM     53  CZ  PHE A 335     -36.373 -15.777   0.443  1.00 97.78     0.000 A 
ATOM     54  CE1 PHE A 335     -36.565 -15.633  -0.915  1.00 95.24     0.001 A 
ATOM     55  CD1 PHE A 335     -37.469 -16.445  -1.574  1.00 89.82     0.007 A 
ENDBRANCH  49  50
ENDBRANCH  48  49
END_RES PHE A 335
BEGIN_RES SER A 336
REMARK  2 active torsions:
REMARK  status: ('A' for Active; 'I' for Inactive)
REMARK   18  A    between atoms: CA   and  CB  
REMARK   19  A    between atoms: CB   and  OG  
ROOT
ATOM     56  CA  SER A 336     -39.180 -22.983  -2.559  1.00102.68     0.185 C 
ENDROOT
BRANCH  56  57
ATOM     57  CB  SER A 336     -40.564 -23.626  -2.601  1.00112.23     0.197 C 
BRANCH  57  58
ATOM     58  OG  SER A 336     -40.551 -24.826  -1.841  1.00126.83    -0.398 OA
ATOM     59  HG  SER A 336     -40.556 -24.614  -0.916  1.00  0.00     0.209 HD
ENDBRANCH  57  58
ENDBRANCH  56  57
END_RES SER A 336
BEGIN_RES LEU A 337
REMARK  2 active torsions:
REMARK  status: ('A' for Active; 'I' for Inactive)
REMARK   20  A    between atoms: CA   and  CB  
REMARK   21  A    between atoms: CB   and  CG  
ROOT
ATOM     60  CA  LEU A 337     -36.886 -23.683  -5.499  1.00120.73     0.176 C 
ENDROOT
BRANCH  60  61
ATOM     61  CB  LEU A 337     -37.281 -23.546  -6.971  1.00120.08     0.038 C 
BRANCH  61  62
ATOM     62  CG  LEU A 337     -37.665 -24.850  -7.675  1.00111.85    -0.020 C 
ATOM     63  CD2 LEU A 337     -36.887 -26.022  -7.094  1.00107.94     0.009 C 
ATOM     64  CD1 LEU A 337     -37.439 -24.747  -9.176  1.00107.35     0.009 C 
ENDBRANCH  61  62
ENDBRANCH  60  61
END_RES LEU A 337
BEGIN_RES PHE A 341
REMARK  2 active torsions:
REMARK  status: ('A' for Active; 'I' for Inactive)
REMARK   22  A    between atoms: CA   and  CB  
REMARK   23  A    between atoms: CB   and  CG  
ROOT
ATOM     65  CA  PHE A 341     -28.541 -18.547  -4.436  1.00133.44     0.180 C 
ENDROOT
BRANCH  65  66
ATOM     66  CB  PHE A 341     -29.475 -19.214  -3.424  1.00125.68     0.073 C 
BRANCH  66  67
ATOM     67  CG  PHE A 341     -29.429 -18.592  -2.059  1.00116.57    -0.056 A 
ATOM     68  CD1 PHE A 341     -29.317 -19.381  -0.926  1.00110.13     0.007 A 
ATOM     69  CE1 PHE A 341     -29.274 -18.810   0.332  1.00108.78     0.001 A 
ATOM     70  CZ  PHE A 341     -29.344 -17.437   0.468  1.00110.64     0.000 A 
ATOM     71  CE2 PHE A 341     -29.456 -16.641  -0.653  1.00119.85     0.001 A 
ATOM     72  CD2 PHE A 341     -29.497 -17.218  -1.908  1.00119.44     0.007 A 
ENDBRANCH  66  67
ENDBRANCH  65  66
END_RES PHE A 341
BEGIN_RES SER A 438
REMARK  2 active torsions:
REMARK  status: ('A' for Active; 'I' for Inactive)
REMARK   24  A    between atoms: CA   and  CB  
REMARK   25  A    between atoms: CB   and  OG  
ROOT
ATOM     73  CA  SER A 438     -31.508 -27.475   3.470  1.00131.63     0.200 C 
ENDROOT
BRANCH  73  74
ATOM     74  CB  SER A 438     -32.877 -26.840   3.708  1.00123.20     0.199 C 
BRANCH  74  75
ATOM     75  OG  SER A 438     -33.857 -27.425   2.871  1.00118.56    -0.398 OA
ATOM     76  HG  SER A 438     -34.694 -26.990   2.975  1.00  0.00     0.209 HD
ENDBRANCH  74  75
ENDBRANCH  73  74
END_RES SER A 438
BEGIN_RES SER A 439
REMARK  2 active torsions:
REMARK  status: ('A' for Active; 'I' for Inactive)
REMARK   26  A    between atoms: CA   and  CB  
REMARK   27  A    between atoms: CB   and  OG  
ROOT
ATOM     77  CA  SER A 439     -29.132 -26.088   6.093  1.00159.98     0.200 C 
ENDROOT
BRANCH  77  78
ATOM     78  CB  SER A 439     -29.265 -26.283   7.605  1.00158.86     0.199 C 
BRANCH  78  79
ATOM     79  OG  SER A 439     -30.342 -25.531   8.127  1.00158.32    -0.398 OA
ATOM     80  HG  SER A 439     -30.289 -24.620   7.860  1.00  0.00     0.209 HD
ENDBRANCH  78  79
ENDBRANCH  77  78
END_RES SER A 439
BEGIN_RES LEU A 443
REMARK  2 active torsions:
REMARK  status: ('A' for Active; 'I' for Inactive)
REMARK   28  A    between atoms: CA   and  CB  
REMARK   29  A    between atoms: CB   and  CG  
ROOT
ATOM     81  CA  LEU A 443     -23.715 -23.506   4.366  1.00121.76     0.177 C 
ENDROOT
BRANCH  81  82
ATOM     82  CB  LEU A 443     -23.373 -24.191   5.687  1.00125.60     0.038 C 
BRANCH  82  83
ATOM     83  CG  LEU A 443     -22.648 -23.353   6.735  1.00116.63    -0.020 C 
ATOM     84  CD1 LEU A 443     -22.786 -21.881   6.396  1.00120.10     0.009 C 
ATOM     85  CD2 LEU A 443     -23.195 -23.646   8.124  1.00107.05     0.009 C 
ENDBRANCH  82  83
ENDBRANCH  81  82
END_RES LEU A 443
BEGIN_RES THR A 497
REMARK  2 active torsions:
REMARK  status: ('A' for Active; 'I' for Inactive)
REMARK   30  A    between atoms: CA   and  CB  
REMARK   31  A    between atoms: CB   and  OG1 
ROOT
ATOM     86  CA  THR A 497     -33.849 -12.060   3.031  1.00129.91     0.205 C 
ENDROOT
BRANCH  86  87
ATOM     87  CB  THR A 497     -34.076 -13.505   3.465  1.00133.40     0.146 C 
ATOM     88  CG2 THR A 497     -33.017 -13.924   4.459  1.00129.89     0.042 C 
BRANCH  87  89
ATOM     89  OG1 THR A 497     -35.361 -13.632   4.080  1.00141.12    -0.393 OA
ATOM     90  HG1 THR A 497     -35.697 -14.504   3.910  1.00  0.00     0.210 HD
ENDBRANCH  87  89
ENDBRANCH  86  87
END_RES THR A 497
BEGIN_RES VAL A 501
REMARK  1 active torsions:
REMARK  status: ('A' for Active; 'I' for Inactive)
REMARK   32  A    between atoms: CA   and  CB  
ROOT
ATOM     91  CA  VAL A 501     -32.184 -12.633  -2.931  1.00 95.30     0.180 C 
ENDROOT
BRANCH  91  92
ATOM     92  CB  VAL A 501     -32.777 -13.859  -2.277  1.00 80.93     0.009 C 
ATOM     93  CG1 VAL A 501     -32.571 -15.074  -3.133  1.00 82.50     0.012 C 
ATOM     94  CG2 VAL A 501     -32.161 -14.071  -0.930  1.00 93.10     0.012 C 
ENDBRANCH  91  92
END_RES VAL A 501
ENDMDL
MODEL 5
REMARK VINA RESULT:      -8.2      1.314      2.642
REMARK  4 active torsions:
REMARK  status: ('A' for Active; 'I' for Inactive)
REMARK    1  A    between atoms: O_1  and  C_11 
REMARK    2  A    between atoms: C_4  and  C_6 
REMARK    3  A    between atoms: C_6  and  C_10 
REMARK    4  A    between atoms: C_6  and  C_11 
ROOT
ATOM      1  C   LIG d  11     -31.704 -21.774   1.764  0.00  0.00     0.176 C 
ENDROOT
BRANCH   1   2
ATOM      2  C   LIG d  11     -31.995 -22.051   3.279  0.00  0.00     0.081 C 
ATOM      3  N   LIG d  11     -33.021 -23.114   3.444  0.00  0.00     0.230 N 
ATOM      4  C   LIG d  11     -33.315 -23.380   4.863  0.00  0.00     0.129 C 
ATOM      5  H   LIG d  11     -32.699 -24.000   2.986  0.00  0.00     0.202 HD
ATOM      6  H   LIG d   1     -33.923 -22.837   3.000  0.00  0.00     0.202 HD
ATOM      7  C   LIG d  11     -32.058 -23.845   5.602  0.00  0.00     0.051 C 
ATOM      8  C   LIG d  11     -30.975 -22.773   5.485  0.00  0.00     0.011 C 
ATOM      9  C   LIG d  11     -30.693 -22.486   4.007  0.00  0.00     0.056 C 
ENDBRANCH   1   2
BRANCH   1  10
ATOM     10  C   LIG d  11     -30.507 -20.855   1.580  0.00  0.00    -0.028 A 
ATOM     11  C   LIG d  11     -30.383 -19.684   2.351  0.00  0.00     0.005 A 
ATOM     12  C   LIG d  11     -29.277 -18.844   2.184  0.00  0.00     0.000 A 
ATOM     13  C   LIG d  11     -28.286 -19.164   1.252  0.00  0.00     0.000 A 
ATOM     14  C   LIG d  11     -28.399 -20.324   0.483  0.00  0.00     0.000 A 
ATOM     15  C   LIG d  11     -29.502 -21.167   0.643  0.00  0.00     0.005 A 
ENDBRANCH   1  10
BRANCH   1  16
ATOM     16  C   LIG d  11     -32.865 -21.162   0.999  0.00  0.00     0.320 C 
ATOM     17  O   LIG d  11     -32.902 -21.199  -0.223  0.00  0.00    -0.250 OA
BRANCH  16  18
ATOM     18  O   LIG d  11     -33.887 -20.602   1.697  0.00  0.00    -0.467 OA
ATOM     19  C   LIG d  11     -35.079 -20.225   1.118  0.00  0.00     0.280 C 
ENDBRANCH  16  18
ENDBRANCH   1  16
TORSDOF 4
BEGIN_RES TYR A  95
REMARK  3 active torsions:
REMARK  status: ('A' for Active; 'I' for Inactive)
REMARK    1  A    between atoms: CA   and  CB  
REMARK    2  A    between atoms: CB   and  CG  
REMARK    3  A    between atoms: CZ   and  OH  
ROOT
ATOM      1  CA  TYR A  95     -31.925 -28.740  -0.297  1.00133.41     0.180 C 
ENDROOT
BRANCH   1   2
ATOM      2  CB  TYR A  95     -30.798 -28.162  -1.153  1.00125.17     0.073 C 
BRANCH   2   3
ATOM      3  CG  TYR A  95     -30.876 -26.663  -1.355  1.00112.79    -0.056 A 
ATOM      4  CD2 TYR A  95     -30.687 -25.790  -0.293  1.00117.30     0.010 A 
ATOM      5  CE2 TYR A  95     -30.762 -24.421  -0.469  1.00 96.38     0.037 A 
ATOM      6  CZ  TYR A  95     -31.033 -23.909  -1.718  1.00 94.79     0.065 A 
ATOM      7  CE1 TYR A  95     -31.228 -24.753  -2.790  1.00101.57     0.037 A 
ATOM      8  CD1 TYR A  95     -31.149 -26.122  -2.605  1.00101.86     0.010 A 
BRANCH   6   9
ATOM      9  OH  TYR A  95     -31.110 -22.548  -1.892  1.00 92.45    -0.361 OA
ATOM     10  HH  TYR A  95     -30.329 -22.017  -1.791  1.00  0.00     0.217 HD
ENDBRANCH   6   9
ENDBRANCH   2   3
ENDBRANCH   1   2
END_RES TYR A  95
BEGIN_RES VAL A  97
REMARK  1 active torsions:
REMARK  status: ('A' for Active; 'I' for Inactive)
REMARK    4  A    between atoms: CA   and  CB  
ROOT
ATOM     11  CA  VAL A  97     -37.308 -29.560   0.219  1.00127.45     0.180 C 
ENDROOT
BRANCH  11  12
ATOM     12  CB  VAL A  97     -37.712 -31.031   0.090  1.00120.74     0.009 C 
ATOM     13  CG1 VAL A  97     -38.777 -31.416   1.097  1.00125.88     0.012 C 
ATOM     14  CG2 VAL A  97     -38.221 -31.279  -1.312  1.00109.33     0.012 C 
ENDBRANCH  11  12
END_RES VAL A  97
BEGIN_RES ASP A  98
REMARK  2 active torsions:
REMARK  status: ('A' for Active; 'I' for Inactive)
REMARK    5  A    between atoms: CA   and  CB  
REMARK    6  A    between atoms: CB   and  CG  
ROOT
ATOM     15  CA  ASP A  98     -37.776 -27.901   3.568  1.00121.51     0.186 C 
ENDROOT
BRANCH  15  16
ATOM     16  CB  ASP A  98     -37.062 -26.548   3.544  1.00133.15     0.147 C 
BRANCH  16  17
ATOM     17  CG  ASP A  98     -37.502 -25.675   2.383  1.00138.88     0.175 C 
ATOM     18  OD1 ASP A  98     -38.679 -25.254   2.358  1.00148.86    -0.648 OA
ATOM     19  OD2 ASP A  98     -36.665 -25.410   1.493  1.00136.05    -0.648 OA
ENDBRANCH  16  17
ENDBRANCH  15  16
END_RES ASP A  98
BEGIN_RES ILE A 168
REMARK  2 active torsions:
REMARK  status: ('A' for Active; 'I' for Inactive)
REMARK    7  A    between atoms: CA   and  CB  
REMARK    8  A    between atoms: CB   and  CG1 
ROOT
ATOM     20  CA  ILE A 168     -27.570 -13.292   3.032  1.00105.39     0.180 C 
ENDROOT
BRANCH  20  21
ATOM     21  CB  ILE A 168     -28.093 -13.472   1.597  1.00 97.36     0.013 C 
ATOM     22  CG2 ILE A 168     -29.556 -13.879   1.616  1.00 85.37     0.012 C 
BRANCH  21  23
ATOM     23  CG1 ILE A 168     -27.910 -12.185   0.795  1.00 87.02     0.002 C 
ATOM     24  CD1 ILE A 168     -28.324 -12.320  -0.647  1.00103.08     0.005 C 
ENDBRANCH  21  23
ENDBRANCH  20  21
END_RES ILE A 168
BEGIN_RES ILE A 172
REMARK  2 active torsions:
REMARK  status: ('A' for Active; 'I' for Inactive)
REMARK    9  A    between atoms: CA   and  CB  
REMARK   10  A    between atoms: CB   and  CG1 
ROOT
ATOM     25  CA  ILE A 172     -30.773 -16.881   6.932  1.00 83.45     0.180 C 
ENDROOT
BRANCH  25  26
ATOM     26  CB  ILE A 172     -30.728 -17.561   5.548  1.00 84.33     0.013 C 
ATOM     27  CG2 ILE A 172     -30.430 -19.048   5.690  1.00 83.90     0.012 C 
BRANCH  26  28
ATOM     28  CG1 ILE A 172     -32.048 -17.357   4.801  1.00 82.82     0.002 C 
ATOM     29  CD1 ILE A 172     -31.886 -16.758   3.417  1.00 83.58     0.005 C 
ENDBRANCH  26  28
ENDBRANCH  25  26
END_RES ILE A 172
BEGIN_RES TYR A 176
REMARK  3 active torsions:
REMARK  status: ('A' for Active; 'I' for Inactive)
REMARK   11  A    between atoms: CA   and  CB  
REMARK   12  A    between atoms: CB   and  CG  
REMARK   13  A    between atoms: CZ   and  OH  
ROOT
ATOM     30  CA  TYR A 176     -33.487 -21.009  10.309  1.00102.89     0.180 C 
ENDROOT
BRANCH  30  31
ATOM     31  CB  TYR A 176     -32.812 -21.233   8.952  1.00 95.23     0.073 C 
BRANCH  31  32
ATOM     32  CG  TYR A 176     -33.734 -21.025   7.770  1.00102.16    -0.056 A 
ATOM     33  CD1 TYR A 176     -35.005 -21.585   7.747  1.00107.08     0.010 A 
ATOM     34  CE1 TYR A 176     -35.852 -21.392   6.671  1.00109.98     0.037 A 
ATOM     35  CZ  TYR A 176     -35.430 -20.632   5.601  1.00104.47     0.065 A 
ATOM     36  CE2 TYR A 176     -34.173 -20.067   5.599  1.00114.31     0.037 A 
ATOM     37  CD2 TYR A 176     -33.335 -20.266   6.680  1.00113.84     0.010 A 
BRANCH  35  38
ATOM     38  OH  TYR A 176     -36.267 -20.440   4.528  1.00 89.93    -0.361 OA
ATOM     39  HH  TYR A 176     -36.135 -19.695   3.953  1.00  0.00     0.217 HD
ENDBRANCH  35  38
ENDBRANCH  31  32
ENDBRANCH  30  31
END_RES TYR A 176
BEGIN_RES PHE A 334
REMARK  2 active torsions:
REMARK  status: ('A' for Active; 'I' for Inactive)
REMARK   14  A    between atoms: CA   and  CB  
REMARK   15  A    between atoms: CB   and  CG  
ROOT
ATOM     40  CA  PHE A 334     -39.127 -19.063  -6.357  1.00 81.01     0.180 C 
ENDROOT
BRANCH  40  41
ATOM     41  CB  PHE A 334     -39.065 -17.547  -6.548  1.00 82.48     0.073 C 
BRANCH  41  42
ATOM     42  CG  PHE A 334     -37.671 -16.990  -6.466  1.00 98.57    -0.056 A 
ATOM     43  CD2 PHE A 334     -36.846 -16.973  -7.580  1.00104.24     0.007 A 
ATOM     44  CE2 PHE A 334     -35.568 -16.451  -7.506  1.00108.47     0.001 A 
ATOM     45  CZ  PHE A 334     -35.101 -15.941  -6.312  1.00100.35     0.000 A 
ATOM     46  CE1 PHE A 334     -35.912 -15.949  -5.197  1.00 98.08     0.001 A 
ATOM     47  CD1 PHE A 334     -37.190 -16.469  -5.276  1.00103.86     0.007 A 
ENDBRANCH  41  42
ENDBRANCH  40  41
END_RES PHE A 334
BEGIN_RES PHE A 335
REMARK  2 active torsions:
REMARK  status: ('A' for Active; 'I' for Inactive)
REMARK   16  A    between atoms: CA   and  CB  
REMARK   17  A    between atoms: CB   and  CG  
ROOT
ATOM     48  CA  PHE A 335     -38.518 -19.241  -2.614  1.00 85.14     0.180 C 
ENDROOT
BRANCH  48  49
ATOM     49  CB  PHE A 335     -39.168 -18.292  -1.604  1.00 80.71     0.073 C 
BRANCH  49  50
ATOM     50  CG  PHE A 335     -38.770 -16.853  -1.781  1.00 83.13    -0.056 A 
ATOM     51  CD2 PHE A 335     -37.455 -16.455  -1.608  1.00 91.60     0.007 A 
ATOM     52  CE2 PHE A 335     -37.087 -15.135  -1.771  1.00 97.60     0.001 A 
ATOM     53  CZ  PHE A 335     -38.034 -14.195  -2.112  1.00 97.78     0.000 A 
ATOM     54  CE1 PHE A 335     -39.348 -14.575  -2.292  1.00 95.24     0.001 A 
ATOM     55  CD1 PHE A 335     -39.712 -15.898  -2.126  1.00 89.82     0.007 A 
ENDBRANCH  49  50
ENDBRANCH  48  49
END_RES PHE A 335
BEGIN_RES SER A 336
REMARK  2 active torsions:
REMARK  status: ('A' for Active; 'I' for Inactive)
REMARK   18  A    between atoms: CA   and  CB  
REMARK   19  A    between atoms: CB   and  OG  
ROOT
ATOM     56  CA  SER A 336     -39.180 -22.983  -2.559  1.00102.68     0.185 C 
ENDROOT
BRANCH  56  57
ATOM     57  CB  SER A 336     -40.564 -23.626  -2.601  1.00112.23     0.197 C 
BRANCH  57  58
ATOM     58  OG  SER A 336     -41.244 -23.364  -1.382  1.00126.83    -0.398 OA
ATOM     59  HG  SER A 336     -42.179 -23.454  -1.516  1.00  0.00     0.209 HD
ENDBRANCH  57  58
ENDBRANCH  56  57
END_RES SER A 336
BEGIN_RES LEU A 337
REMARK  2 active torsions:
REMARK  status: ('A' for Active; 'I' for Inactive)
REMARK   20  A    between atoms: CA   and  CB  
REMARK   21  A    between atoms: CB   and  CG  
ROOT
ATOM     60  CA  LEU A 337     -36.886 -23.683  -5.499  1.00120.73     0.176 C 
ENDROOT
BRANCH  60  61
ATOM     61  CB  LEU A 337     -37.281 -23.546  -6.971  1.00120.08     0.038 C 
BRANCH  61  62
ATOM     62  CG  LEU A 337     -37.673 -24.849  -7.673  1.00111.85    -0.020 C 
ATOM     63  CD2 LEU A 337     -36.905 -26.025  -7.087  1.00107.94     0.009 C 
ATOM     64  CD1 LEU A 337     -37.443 -24.751  -9.173  1.00107.35     0.009 C 
ENDBRANCH  61  62
ENDBRANCH  60  61
END_RES LEU A 337
BEGIN_RES PHE A 341
REMARK  2 active torsions:
REMARK  status: ('A' for Active; 'I' for Inactive)
REMARK   22  A    between atoms: CA   and  CB  
REMARK   23  A    between atoms: CB   and  CG  
ROOT
ATOM     65  CA  PHE A 341     -28.541 -18.547  -4.436  1.00133.44     0.180 C 
ENDROOT
BRANCH  65  66
ATOM     66  CB  PHE A 341     -29.475 -19.214  -3.424  1.00125.68     0.073 C 
BRANCH  66  67
ATOM     67  CG  PHE A 341     -29.885 -18.313  -2.295  1.00116.57    -0.056 A 
ATOM     68  CD1 PHE A 341     -29.104 -17.227  -1.939  1.00110.13     0.007 A 
ATOM     69  CE1 PHE A 341     -29.480 -16.396  -0.900  1.00108.78     0.001 A 
ATOM     70  CZ  PHE A 341     -30.646 -16.647  -0.205  1.00110.64     0.000 A 
ATOM     71  CE2 PHE A 341     -31.433 -17.727  -0.551  1.00119.85     0.001 A 
ATOM     72  CD2 PHE A 341     -31.051 -18.552  -1.591  1.00119.44     0.007 A 
ENDBRANCH  66  67
ENDBRANCH  65  66
END_RES PHE A 341
BEGIN_RES SER A 438
REMARK  2 active torsions:
REMARK  status: ('A' for Active; 'I' for Inactive)
REMARK   24  A    between atoms: CA   and  CB  
REMARK   25  A    between atoms: CB   and  OG  
ROOT
ATOM     73  CA  SER A 438     -31.508 -27.475   3.470  1.00131.63     0.200 C 
ENDROOT
BRANCH  73  74
ATOM     74  CB  SER A 438     -32.877 -26.840   3.708  1.00123.20     0.199 C 
BRANCH  74  75
ATOM     75  OG  SER A 438     -33.856 -27.423   2.869  1.00118.56    -0.398 OA
ATOM     76  HG  SER A 438     -33.873 -26.995   2.021  1.00  0.00     0.209 HD
ENDBRANCH  74  75
ENDBRANCH  73  74
END_RES SER A 438
BEGIN_RES SER A 439
REMARK  2 active torsions:
REMARK  status: ('A' for Active; 'I' for Inactive)
REMARK   26  A    between atoms: CA   and  CB  
REMARK   27  A    between atoms: CB   and  OG  
ROOT
ATOM     77  CA  SER A 439     -29.132 -26.088   6.093  1.00159.98     0.200 C 
ENDROOT
BRANCH  77  78
ATOM     78  CB  SER A 439     -29.265 -26.283   7.605  1.00158.86     0.199 C 
BRANCH  78  79
ATOM     79  OG  SER A 439     -30.333 -25.519   8.129  1.00158.32    -0.398 OA
ATOM     80  HG  SER A 439     -30.943 -25.265   7.446  1.00  0.00     0.209 HD
ENDBRANCH  78  79
ENDBRANCH  77  78
END_RES SER A 439
BEGIN_RES LEU A 443
REMARK  2 active torsions:
REMARK  status: ('A' for Active; 'I' for Inactive)
REMARK   28  A    between atoms: CA   and  CB  
REMARK   29  A    between atoms: CB   and  CG  
ROOT
ATOM     81  CA  LEU A 443     -23.715 -23.506   4.366  1.00121.76     0.177 C 
ENDROOT
BRANCH  81  82
ATOM     82  CB  LEU A 443     -23.373 -24.191   5.687  1.00125.60     0.038 C 
BRANCH  82  83
ATOM     83  CG  LEU A 443     -22.647 -23.354   6.735  1.00116.63    -0.020 C 
ATOM     84  CD1 LEU A 443     -22.784 -21.881   6.396  1.00120.10     0.009 C 
ATOM     85  CD2 LEU A 443     -23.194 -23.645   8.124  1.00107.05     0.009 C 
ENDBRANCH  82  83
ENDBRANCH  81  82
END_RES LEU A 443
BEGIN_RES THR A 497
REMARK  2 active torsions:
REMARK  status: ('A' for Active; 'I' for Inactive)
REMARK   30  A    between atoms: CA   and  CB  
REMARK   31  A    between atoms: CB   and  OG1 
ROOT
ATOM     86  CA  THR A 497     -33.849 -12.060   3.031  1.00129.91     0.205 C 
ENDROOT
BRANCH  86  87
ATOM     87  CB  THR A 497     -34.076 -13.505   3.465  1.00133.40     0.146 C 
ATOM     88  CG2 THR A 497     -33.041 -13.911   4.490  1.00129.89     0.042 C 
BRANCH  87  89
ATOM     89  OG1 THR A 497     -35.377 -13.640   4.045  1.00141.12    -0.393 OA
ATOM     90  HG1 THR A 497     -35.841 -12.816   3.949  1.00  0.00     0.210 HD
ENDBRANCH  87  89
ENDBRANCH  86  87
END_RES THR A 497
BEGIN_RES VAL A 501
REMARK  1 active torsions:
REMARK  status: ('A' for Active; 'I' for Inactive)
REMARK   32  A    between atoms: CA   and  CB  
ROOT
ATOM     91  CA  VAL A 501     -32.184 -12.633  -2.931  1.00 95.30     0.180 C 
ENDROOT
BRANCH  91  92
ATOM     92  CB  VAL A 501     -32.777 -13.859  -2.277  1.00 80.93     0.009 C 
ATOM     93  CG1 VAL A 501     -32.398 -15.102  -3.028  1.00 82.50     0.012 C 
ATOM     94  CG2 VAL A 501     -32.315 -13.958  -0.857  1.00 93.10     0.012 C 
ENDBRANCH  91  92
END_RES VAL A 501
ENDMDL
MODEL 6
REMARK VINA RESULT:      -8.1      0.512      1.512
REMARK  4 active torsions:
REMARK  status: ('A' for Active; 'I' for Inactive)
REMARK    1  A    between atoms: O_1  and  C_11 
REMARK    2  A    between atoms: C_4  and  C_6 
REMARK    3  A    between atoms: C_6  and  C_10 
REMARK    4  A    between atoms: C_6  and  C_11 
ROOT
ATOM      1  C   LIG d  11     -33.510 -20.715   1.989  0.00  0.00     0.176 C 
ENDROOT
BRANCH   1   2
ATOM      2  C   LIG d  11     -33.007 -19.860   0.775  0.00  0.00     0.081 C 
ATOM      3  N   LIG d  11     -33.328 -20.519  -0.518  0.00  0.00     0.230 N 
ATOM      4  C   LIG d  11     -32.852 -19.734  -1.670  0.00  0.00     0.129 C 
ATOM      5  H   LIG d  11     -34.362 -20.664  -0.601  0.00  0.00     0.202 HD
ATOM      6  H   LIG d   1     -32.870 -21.454  -0.586  0.00  0.00     0.202 HD
ATOM      7  C   LIG d  11     -33.506 -18.350  -1.693  0.00  0.00     0.051 C 
ATOM      8  C   LIG d  11     -33.186 -17.616  -0.391  0.00  0.00     0.011 C 
ATOM      9  C   LIG d  11     -33.662 -18.451   0.801  0.00  0.00     0.056 C 
ENDBRANCH   1   2
BRANCH   1  10
ATOM     10  C   LIG d  11     -32.352 -21.303   2.780  0.00  0.00    -0.028 A 
ATOM     11  C   LIG d  11     -32.597 -22.123   3.898  0.00  0.00     0.005 A 
ATOM     12  C   LIG d  11     -31.529 -22.668   4.619  0.00  0.00     0.000 A 
ATOM     13  C   LIG d  11     -30.213 -22.403   4.233  0.00  0.00     0.000 A 
ATOM     14  C   LIG d  11     -29.960 -21.591   3.125  0.00  0.00     0.000 A 
ATOM     15  C   LIG d  11     -31.021 -21.042   2.401  0.00  0.00     0.005 A 
ENDBRANCH   1  10
BRANCH   1  16
ATOM     16  C   LIG d  11     -34.430 -21.863   1.614  0.00  0.00     0.320 C 
ATOM     17  O   LIG d  11     -35.610 -21.855   1.936  0.00  0.00    -0.250 OA
BRANCH  16  18
ATOM     18  O   LIG d  11     -33.931 -22.890   0.877  0.00  0.00    -0.467 OA
ATOM     19  C   LIG d  11     -34.121 -24.215   1.204  0.00  0.00     0.280 C 
ENDBRANCH  16  18
ENDBRANCH   1  16
TORSDOF 4
BEGIN_RES TYR A  95
REMARK  3 active torsions:
REMARK  status: ('A' for Active; 'I' for Inactive)
REMARK    1  A    between atoms: CA   and  CB  
REMARK    2  A    between atoms: CB   and  CG  
REMARK    3  A    between atoms: CZ   and  OH  
ROOT
ATOM      1  CA  TYR A  95     -31.925 -28.740  -0.297  1.00133.41     0.180 C 
ENDROOT
BRANCH   1   2
ATOM      2  CB  TYR A  95     -30.798 -28.162  -1.153  1.00125.17     0.073 C 
BRANCH   2   3
ATOM      3  CG  TYR A  95     -30.805 -26.651  -1.254  1.00112.79    -0.056 A 
ATOM      4  CD2 TYR A  95     -30.621 -25.860  -0.128  1.00117.30     0.010 A 
ATOM      5  CE2 TYR A  95     -30.632 -24.481  -0.211  1.00 96.38     0.037 A 
ATOM      6  CZ  TYR A  95     -30.833 -23.874  -1.431  1.00 94.79     0.065 A 
ATOM      7  CE1 TYR A  95     -31.021 -24.635  -2.565  1.00101.57     0.037 A 
ATOM      8  CD1 TYR A  95     -31.006 -26.015  -2.472  1.00101.86     0.010 A 
BRANCH   6   9
ATOM      9  OH  TYR A  95     -30.846 -22.503  -1.514  1.00 92.45    -0.361 OA
ATOM     10  HH  TYR A  95     -30.026 -22.023  -1.500  1.00  0.00     0.217 HD
ENDBRANCH   6   9
ENDBRANCH   2   3
ENDBRANCH   1   2
END_RES TYR A  95
BEGIN_RES VAL A  97
REMARK  1 active torsions:
REMARK  status: ('A' for Active; 'I' for Inactive)
REMARK    4  A    between atoms: CA   and  CB  
ROOT
ATOM     11  CA  VAL A  97     -37.308 -29.560   0.219  1.00127.45     0.180 C 
ENDROOT
BRANCH  11  12
ATOM     12  CB  VAL A  97     -37.712 -31.031   0.090  1.00120.74     0.009 C 
ATOM     13  CG1 VAL A  97     -38.780 -31.415   1.094  1.00125.88     0.012 C 
ATOM     14  CG2 VAL A  97     -38.216 -31.280  -1.313  1.00109.33     0.012 C 
ENDBRANCH  11  12
END_RES VAL A  97
BEGIN_RES ASP A  98
REMARK  2 active torsions:
REMARK  status: ('A' for Active; 'I' for Inactive)
REMARK    5  A    between atoms: CA   and  CB  
REMARK    6  A    between atoms: CB   and  CG  
ROOT
ATOM     15  CA  ASP A  98     -37.776 -27.901   3.568  1.00121.51     0.186 C 
ENDROOT
BRANCH  15  16
ATOM     16  CB  ASP A  98     -37.062 -26.548   3.544  1.00133.15     0.147 C 
BRANCH  16  17
ATOM     17  CG  ASP A  98     -37.684 -25.576   2.559  1.00138.88     0.175 C 
ATOM     18  OD1 ASP A  98     -38.436 -24.676   2.994  1.00148.86    -0.648 OA
ATOM     19  OD2 ASP A  98     -37.418 -25.714   1.345  1.00136.05    -0.648 OA
ENDBRANCH  16  17
ENDBRANCH  15  16
END_RES ASP A  98
BEGIN_RES ILE A 168
REMARK  2 active torsions:
REMARK  status: ('A' for Active; 'I' for Inactive)
REMARK    7  A    between atoms: CA   and  CB  
REMARK    8  A    between atoms: CB   and  CG1 
ROOT
ATOM     20  CA  ILE A 168     -27.570 -13.292   3.032  1.00105.39     0.180 C 
ENDROOT
BRANCH  20  21
ATOM     21  CB  ILE A 168     -28.093 -13.472   1.597  1.00 97.36     0.013 C 
ATOM     22  CG2 ILE A 168     -29.552 -13.893   1.617  1.00 85.37     0.012 C 
BRANCH  21  23
ATOM     23  CG1 ILE A 168     -27.924 -12.181   0.799  1.00 87.02     0.002 C 
ATOM     24  CD1 ILE A 168     -28.300 -12.325  -0.652  1.00103.08     0.005 C 
ENDBRANCH  21  23
ENDBRANCH  20  21
END_RES ILE A 168
BEGIN_RES ILE A 172
REMARK  2 active torsions:
REMARK  status: ('A' for Active; 'I' for Inactive)
REMARK    9  A    between atoms: CA   and  CB  
REMARK   10  A    between atoms: CB   and  CG1 
ROOT
ATOM     25  CA  ILE A 172     -30.773 -16.881   6.932  1.00 83.45     0.180 C 
ENDROOT
BRANCH  25  26
ATOM     26  CB  ILE A 172     -30.728 -17.561   5.548  1.00 84.33     0.013 C 
ATOM     27  CG2 ILE A 172     -30.930 -19.064   5.682  1.00 83.90     0.012 C 
BRANCH  26  28
ATOM     28  CG1 ILE A 172     -31.788 -16.967   4.618  1.00 82.82     0.002 C 
ATOM     29  CD1 ILE A 172     -32.910 -17.928   4.270  1.00 83.58     0.005 C 
ENDBRANCH  26  28
ENDBRANCH  25  26
END_RES ILE A 172
BEGIN_RES TYR A 176
REMARK  3 active torsions:
REMARK  status: ('A' for Active; 'I' for Inactive)
REMARK   11  A    between atoms: CA   and  CB  
REMARK   12  A    between atoms: CB   and  CG  
REMARK   13  A    between atoms: CZ   and  OH  
ROOT
ATOM     30  CA  TYR A 176     -33.487 -21.009  10.309  1.00102.89     0.180 C 
ENDROOT
BRANCH  30  31
ATOM     31  CB  TYR A 176     -32.812 -21.233   8.952  1.00 95.23     0.073 C 
BRANCH  31  32
ATOM     32  CG  TYR A 176     -33.786 -21.451   7.815  1.00102.16    -0.056 A 
ATOM     33  CD1 TYR A 176     -34.392 -22.685   7.618  1.00107.08     0.010 A 
ATOM     34  CE1 TYR A 176     -35.287 -22.886   6.583  1.00109.98     0.037 A 
ATOM     35  CZ  TYR A 176     -35.584 -21.845   5.729  1.00104.47     0.065 A 
ATOM     36  CE2 TYR A 176     -34.995 -20.612   5.902  1.00114.31     0.037 A 
ATOM     37  CD2 TYR A 176     -34.102 -20.421   6.940  1.00113.84     0.010 A 
BRANCH  35  38
ATOM     38  OH  TYR A 176     -36.471 -22.040   4.697  1.00 89.93    -0.361 OA
ATOM     39  HH  TYR A 176     -37.191 -22.651   4.802  1.00  0.00     0.217 HD
ENDBRANCH  35  38
ENDBRANCH  31  32
ENDBRANCH  30  31
END_RES TYR A 176
BEGIN_RES PHE A 334
REMARK  2 active torsions:
REMARK  status: ('A' for Active; 'I' for Inactive)
REMARK   14  A    between atoms: CA   and  CB  
REMARK   15  A    between atoms: CB   and  CG  
ROOT
ATOM     40  CA  PHE A 334     -39.127 -19.063  -6.357  1.00 81.01     0.180 C 
ENDROOT
BRANCH  40  41
ATOM     41  CB  PHE A 334     -39.065 -17.547  -6.548  1.00 82.48     0.073 C 
BRANCH  41  42
ATOM     42  CG  PHE A 334     -37.672 -16.989  -6.454  1.00 98.57    -0.056 A 
ATOM     43  CD2 PHE A 334     -36.840 -16.966  -7.561  1.00104.24     0.007 A 
ATOM     44  CE2 PHE A 334     -35.563 -16.443  -7.476  1.00108.47     0.001 A 
ATOM     45  CZ  PHE A 334     -35.105 -15.936  -6.277  1.00100.35     0.000 A 
ATOM     46  CE1 PHE A 334     -35.924 -15.949  -5.168  1.00 98.08     0.001 A 
ATOM     47  CD1 PHE A 334     -37.201 -16.471  -5.258  1.00103.86     0.007 A 
ENDBRANCH  41  42
ENDBRANCH  40  41
END_RES PHE A 334
BEGIN_RES PHE A 335
REMARK  2 active torsions:
REMARK  status: ('A' for Active; 'I' for Inactive)
REMARK   16  A    between atoms: CA   and  CB  
REMARK   17  A    between atoms: CB   and  CG  
ROOT
ATOM     48  CA  PHE A 335     -38.518 -19.241  -2.614  1.00 85.14     0.180 C 
ENDROOT
BRANCH  48  49
ATOM     49  CB  PHE A 335     -39.168 -18.292  -1.604  1.00 80.71     0.073 C 
BRANCH  49  50
ATOM     50  CG  PHE A 335     -38.186 -17.418  -0.875  1.00 83.13    -0.056 A 
ATOM     51  CD2 PHE A 335     -37.324 -16.587  -1.570  1.00 91.60     0.007 A 
ATOM     52  CE2 PHE A 335     -36.423 -15.783  -0.903  1.00 97.60     0.001 A 
ATOM     53  CZ  PHE A 335     -36.376 -15.799   0.474  1.00 97.78     0.000 A 
ATOM     54  CE1 PHE A 335     -37.231 -16.618   1.182  1.00 95.24     0.001 A 
ATOM     55  CD1 PHE A 335     -38.131 -17.422   0.509  1.00 89.82     0.007 A 
ENDBRANCH  49  50
ENDBRANCH  48  49
END_RES PHE A 335
BEGIN_RES SER A 336
REMARK  2 active torsions:
REMARK  status: ('A' for Active; 'I' for Inactive)
REMARK   18  A    between atoms: CA   and  CB  
REMARK   19  A    between atoms: CB   and  OG  
ROOT
ATOM     56  CA  SER A 336     -39.180 -22.983  -2.559  1.00102.68     0.185 C 
ENDROOT
BRANCH  56  57
ATOM     57  CB  SER A 336     -40.564 -23.626  -2.601  1.00112.23     0.197 C 
BRANCH  57  58
ATOM     58  OG  SER A 336     -40.554 -24.818  -1.830  1.00126.83    -0.398 OA
ATOM     59  HG  SER A 336     -41.341 -24.858  -1.299  1.00  0.00     0.209 HD
ENDBRANCH  57  58
ENDBRANCH  56  57
END_RES SER A 336
BEGIN_RES LEU A 337
REMARK  2 active torsions:
REMARK  status: ('A' for Active; 'I' for Inactive)
REMARK   20  A    between atoms: CA   and  CB  
REMARK   21  A    between atoms: CB   and  CG  
ROOT
ATOM     60  CA  LEU A 337     -36.886 -23.683  -5.499  1.00120.73     0.176 C 
ENDROOT
BRANCH  60  61
ATOM     61  CB  LEU A 337     -37.281 -23.546  -6.971  1.00120.08     0.038 C 
BRANCH  61  62
ATOM     62  CG  LEU A 337     -37.041 -24.786  -7.836  1.00111.85    -0.020 C 
ATOM     63  CD2 LEU A 337     -37.702 -24.625  -9.198  1.00107.94     0.009 C 
ATOM     64  CD1 LEU A 337     -37.543 -26.042  -7.141  1.00107.35     0.009 C 
ENDBRANCH  61  62
ENDBRANCH  60  61
END_RES LEU A 337
BEGIN_RES PHE A 341
REMARK  2 active torsions:
REMARK  status: ('A' for Active; 'I' for Inactive)
REMARK   22  A    between atoms: CA   and  CB  
REMARK   23  A    between atoms: CB   and  CG  
ROOT
ATOM     65  CA  PHE A 341     -28.541 -18.547  -4.436  1.00133.44     0.180 C 
ENDROOT
BRANCH  65  66
ATOM     66  CB  PHE A 341     -29.475 -19.214  -3.424  1.00125.68     0.073 C 
BRANCH  66  67
ATOM     67  CG  PHE A 341     -29.490 -18.542  -2.082  1.00116.57    -0.056 A 
ATOM     68  CD1 PHE A 341     -29.409 -19.288  -0.918  1.00110.13     0.007 A 
ATOM     69  CE1 PHE A 341     -29.422 -18.671   0.319  1.00108.78     0.001 A 
ATOM     70  CZ  PHE A 341     -29.516 -17.296   0.403  1.00110.64     0.000 A 
ATOM     71  CE2 PHE A 341     -29.596 -16.542  -0.751  1.00119.85     0.001 A 
ATOM     72  CD2 PHE A 341     -29.582 -17.165  -1.984  1.00119.44     0.007 A 
ENDBRANCH  66  67
ENDBRANCH  65  66
END_RES PHE A 341
BEGIN_RES SER A 438
REMARK  2 active torsions:
REMARK  status: ('A' for Active; 'I' for Inactive)
REMARK   24  A    between atoms: CA   and  CB  
REMARK   25  A    between atoms: CB   and  OG  
ROOT
ATOM     73  CA  SER A 438     -31.508 -27.475   3.470  1.00131.63     0.200 C 
ENDROOT
BRANCH  73  74
ATOM     74  CB  SER A 438     -32.877 -26.840   3.708  1.00123.20     0.199 C 
BRANCH  74  75
ATOM     75  OG  SER A 438     -33.862 -27.445   2.892  1.00118.56    -0.398 OA
ATOM     76  HG  SER A 438     -34.380 -26.787   2.442  1.00  0.00     0.209 HD
ENDBRANCH  74  75
ENDBRANCH  73  74
END_RES SER A 438
BEGIN_RES SER A 439
REMARK  2 active torsions:
REMARK  status: ('A' for Active; 'I' for Inactive)
REMARK   26  A    between atoms: CA   and  CB  
REMARK   27  A    between atoms: CB   and  OG  
ROOT
ATOM     77  CA  SER A 439     -29.132 -26.088   6.093  1.00159.98     0.200 C 
ENDROOT
BRANCH  77  78
ATOM     78  CB  SER A 439     -29.265 -26.283   7.605  1.00158.86     0.199 C 
BRANCH  78  79
ATOM     79  OG  SER A 439     -30.339 -25.527   8.128  1.00158.32    -0.398 OA
ATOM     80  HG  SER A 439     -30.032 -24.720   8.524  1.00  0.00     0.209 HD
ENDBRANCH  78  79
ENDBRANCH  77  78
END_RES SER A 439
BEGIN_RES LEU A 443
REMARK  2 active torsions:
REMARK  status: ('A' for Active; 'I' for Inactive)
REMARK   28  A    between atoms: CA   and  CB  
REMARK   29  A    between atoms: CB   and  CG  
ROOT
ATOM     81  CA  LEU A 443     -23.715 -23.506   4.366  1.00121.76     0.177 C 
ENDROOT
BRANCH  81  82
ATOM     82  CB  LEU A 443     -23.373 -24.191   5.687  1.00125.60     0.038 C 
BRANCH  82  83
ATOM     83  CG  LEU A 443     -22.652 -23.352   6.737  1.00116.63    -0.020 C 
ATOM     84  CD1 LEU A 443     -22.796 -21.879   6.401  1.00120.10     0.009 C 
ATOM     85  CD2 LEU A 443     -23.197 -23.650   8.125  1.00107.05     0.009 C 
ENDBRANCH  82  83
ENDBRANCH  81  82
END_RES LEU A 443
BEGIN_RES THR A 497
REMARK  2 active torsions:
REMARK  status: ('A' for Active; 'I' for Inactive)
REMARK   30  A    between atoms: CA   and  CB  
REMARK   31  A    between atoms: CB   and  OG1 
ROOT
ATOM     86  CA  THR A 497     -33.849 -12.060   3.031  1.00129.91     0.205 C 
ENDROOT
BRANCH  86  87
ATOM     87  CB  THR A 497     -34.076 -13.505   3.465  1.00133.40     0.146 C 
ATOM     88  CG2 THR A 497     -32.969 -13.951   4.394  1.00129.89     0.042 C 
BRANCH  87  89
ATOM     89  OG1 THR A 497     -35.326 -13.616   4.151  1.00141.12    -0.393 OA
ATOM     90  HG1 THR A 497     -35.290 -14.365   4.734  1.00  0.00     0.210 HD
ENDBRANCH  87  89
ENDBRANCH  86  87
END_RES THR A 497
BEGIN_RES VAL A 501
REMARK  1 active torsions:
REMARK  status: ('A' for Active; 'I' for Inactive)
REMARK   32  A    between atoms: CA   and  CB  
ROOT
ATOM     91  CA  VAL A 501     -32.184 -12.633  -2.931  1.00 95.30     0.180 C 
ENDROOT
BRANCH  91  92
ATOM     92  CB  VAL A 501     -32.777 -13.859  -2.277  1.00 80.93     0.009 C 
ATOM     93  CG1 VAL A 501     -32.516 -15.085  -3.103  1.00 82.50     0.012 C 
ATOM     94  CG2 VAL A 501     -32.207 -14.035  -0.904  1.00 93.10     0.012 C 
ENDBRANCH  91  92
END_RES VAL A 501
ENDMDL
MODEL 7
REMARK VINA RESULT:      -7.6      1.358      3.286
REMARK  4 active torsions:
REMARK  status: ('A' for Active; 'I' for Inactive)
REMARK    1  A    between atoms: O_1  and  C_11 
REMARK    2  A    between atoms: C_4  and  C_6 
REMARK    3  A    between atoms: C_6  and  C_10 
REMARK    4  A    between atoms: C_6  and  C_11 
ROOT
ATOM      1  C   LIG d  11     -37.481 -19.120   1.868  0.00  0.00     0.176 C 
ENDROOT
BRANCH   1   2
ATOM      2  C   LIG d  11     -35.942 -19.298   1.628  0.00  0.00     0.081 C 
ATOM      3  N   LIG d  11     -35.446 -20.562   2.233  0.00  0.00     0.230 N 
ATOM      4  C   LIG d  11     -33.998 -20.741   2.026  0.00  0.00     0.129 C 
ATOM      5  H   LIG d  11     -35.957 -21.381   1.825  0.00  0.00     0.202 HD
ATOM      6  H   LIG d   1     -35.603 -20.572   3.264  0.00  0.00     0.202 HD
ATOM      7  C   LIG d  11     -33.663 -20.790   0.533  0.00  0.00     0.051 C 
ATOM      8  C   LIG d  11     -34.131 -19.499  -0.135  0.00  0.00     0.011 C 
ATOM      9  C   LIG d  11     -35.632 -19.308   0.106  0.00  0.00     0.056 C 
ENDBRANCH   1   2
BRANCH   1  10
ATOM     10  C   LIG d  11     -37.885 -17.654   1.863  0.00  0.00    -0.028 A 
ATOM     11  C   LIG d  11     -39.243 -17.289   1.820  0.00  0.00     0.005 A 
ATOM     12  C   LIG d  11     -39.611 -15.939   1.822  0.00  0.00     0.000 A 
ATOM     13  C   LIG d  11     -38.631 -14.944   1.868  0.00  0.00     0.000 A 
ATOM     14  C   LIG d  11     -37.280 -15.296   1.911  0.00  0.00     0.000 A 
ATOM     15  C   LIG d  11     -36.905 -16.642   1.908  0.00  0.00     0.005 A 
ENDBRANCH   1  10
BRANCH   1  16
ATOM     16  C   LIG d  11     -37.992 -19.724   3.164  0.00  0.00     0.320 C 
ATOM     17  O   LIG d  11     -37.754 -19.196   4.242  0.00  0.00    -0.250 OA
BRANCH  16  18
ATOM     18  O   LIG d  11     -38.755 -20.846   3.108  0.00  0.00    -0.467 OA
ATOM     19  C   LIG d  11     -39.773 -21.022   2.196  0.00  0.00     0.280 C 
ENDBRANCH  16  18
ENDBRANCH   1  16
TORSDOF 4
BEGIN_RES TYR A  95
REMARK  3 active torsions:
REMARK  status: ('A' for Active; 'I' for Inactive)
REMARK    1  A    between atoms: CA   and  CB  
REMARK    2  A    between atoms: CB   and  CG  
REMARK    3  A    between atoms: CZ   and  OH  
ROOT
ATOM      1  CA  TYR A  95     -31.925 -28.740  -0.297  1.00133.41     0.180 C 
ENDROOT
BRANCH   1   2
ATOM      2  CB  TYR A  95     -30.798 -28.162  -1.153  1.00125.17     0.073 C 
BRANCH   2   3
ATOM      3  CG  TYR A  95     -30.818 -26.652  -1.271  1.00112.79    -0.056 A 
ATOM      4  CD2 TYR A  95     -30.632 -25.847  -0.156  1.00117.30     0.010 A 
ATOM      5  CE2 TYR A  95     -30.654 -24.469  -0.256  1.00 96.38     0.037 A 
ATOM      6  CZ  TYR A  95     -30.869 -23.878  -1.481  1.00 94.79     0.065 A 
ATOM      7  CE1 TYR A  95     -31.059 -24.654  -2.605  1.00101.57     0.037 A 
ATOM      8  CD1 TYR A  95     -31.033 -26.033  -2.496  1.00101.86     0.010 A 
BRANCH   6   9
ATOM      9  OH  TYR A  95     -30.893 -22.508  -1.580  1.00 92.45    -0.361 OA
ATOM     10  HH  TYR A  95     -30.082 -22.018  -1.515  1.00  0.00     0.217 HD
ENDBRANCH   6   9
ENDBRANCH   2   3
ENDBRANCH   1   2
END_RES TYR A  95
BEGIN_RES VAL A  97
REMARK  1 active torsions:
REMARK  status: ('A' for Active; 'I' for Inactive)
REMARK    4  A    between atoms: CA   and  CB  
ROOT
ATOM     11  CA  VAL A  97     -37.308 -29.560   0.219  1.00127.45     0.180 C 
ENDROOT
BRANCH  11  12
ATOM     12  CB  VAL A  97     -37.712 -31.031   0.090  1.00120.74     0.009 C 
ATOM     13  CG1 VAL A  97     -38.779 -31.415   1.096  1.00125.88     0.012 C 
ATOM     14  CG2 VAL A  97     -38.219 -31.280  -1.313  1.00109.33     0.012 C 
ENDBRANCH  11  12
END_RES VAL A  97
BEGIN_RES ASP A  98
REMARK  2 active torsions:
REMARK  status: ('A' for Active; 'I' for Inactive)
REMARK    5  A    between atoms: CA   and  CB  
REMARK    6  A    between atoms: CB   and  CG  
ROOT
ATOM     15  CA  ASP A  98     -37.776 -27.901   3.568  1.00121.51     0.186 C 
ENDROOT
BRANCH  15  16
ATOM     16  CB  ASP A  98     -37.062 -26.548   3.544  1.00133.15     0.147 C 
BRANCH  16  17
ATOM     17  CG  ASP A  98     -37.104 -25.888   2.178  1.00138.88     0.175 C 
ATOM     18  OD1 ASP A  98     -36.039 -25.768   1.533  1.00148.86    -0.648 OA
ATOM     19  OD2 ASP A  98     -38.209 -25.490   1.749  1.00136.05    -0.648 OA
ENDBRANCH  16  17
ENDBRANCH  15  16
END_RES ASP A  98
BEGIN_RES ILE A 168
REMARK  2 active torsions:
REMARK  status: ('A' for Active; 'I' for Inactive)
REMARK    7  A    between atoms: CA   and  CB  
REMARK    8  A    between atoms: CB   and  CG1 
ROOT
ATOM     20  CA  ILE A 168     -27.570 -13.292   3.032  1.00105.39     0.180 C 
ENDROOT
BRANCH  20  21
ATOM     21  CB  ILE A 168     -28.093 -13.472   1.597  1.00 97.36     0.013 C 
ATOM     22  CG2 ILE A 168     -29.562 -13.857   1.616  1.00 85.37     0.012 C 
BRANCH  21  23
ATOM     23  CG1 ILE A 168     -27.889 -12.193   0.788  1.00 87.02     0.002 C 
ATOM     24  CD1 ILE A 168     -28.301 -12.329  -0.654  1.00103.08     0.005 C 
ENDBRANCH  21  23
ENDBRANCH  20  21
END_RES ILE A 168
BEGIN_RES ILE A 172
REMARK  2 active torsions:
REMARK  status: ('A' for Active; 'I' for Inactive)
REMARK    9  A    between atoms: CA   and  CB  
REMARK   10  A    between atoms: CB   and  CG1 
ROOT
ATOM     25  CA  ILE A 172     -30.773 -16.881   6.932  1.00 83.45     0.180 C 
ENDROOT
BRANCH  25  26
ATOM     26  CB  ILE A 172     -30.728 -17.561   5.548  1.00 84.33     0.013 C 
ATOM     27  CG2 ILE A 172     -30.903 -19.068   5.685  1.00 83.90     0.012 C 
BRANCH  26  28
ATOM     28  CG1 ILE A 172     -31.806 -16.987   4.627  1.00 82.82     0.002 C 
ATOM     29  CD1 ILE A 172     -32.780 -18.023   4.097  1.00 83.58     0.005 C 
ENDBRANCH  26  28
ENDBRANCH  25  26
END_RES ILE A 172
BEGIN_RES TYR A 176
REMARK  3 active torsions:
REMARK  status: ('A' for Active; 'I' for Inactive)
REMARK   11  A    between atoms: CA   and  CB  
REMARK   12  A    between atoms: CB   and  CG  
REMARK   13  A    between atoms: CZ   and  OH  
ROOT
ATOM     30  CA  TYR A 176     -33.487 -21.009  10.309  1.00102.89     0.180 C 
ENDROOT
BRANCH  30  31
ATOM     31  CB  TYR A 176     -32.812 -21.233   8.952  1.00 95.23     0.073 C 
BRANCH  31  32
ATOM     32  CG  TYR A 176     -33.786 -21.448   7.814  1.00102.16    -0.056 A 
ATOM     33  CD1 TYR A 176     -34.489 -22.639   7.690  1.00107.08     0.010 A 
ATOM     34  CE1 TYR A 176     -35.384 -22.837   6.653  1.00109.98     0.037 A 
ATOM     35  CZ  TYR A 176     -35.584 -21.836   5.727  1.00104.47     0.065 A 
ATOM     36  CE2 TYR A 176     -34.897 -20.645   5.828  1.00114.31     0.037 A 
ATOM     37  CD2 TYR A 176     -34.005 -20.458   6.867  1.00113.84     0.010 A 
BRANCH  35  38
ATOM     38  OH  TYR A 176     -36.470 -22.028   4.694  1.00 89.93    -0.361 OA
ATOM     39  HH  TYR A 176     -37.335 -22.378   4.873  1.00  0.00     0.217 HD
ENDBRANCH  35  38
ENDBRANCH  31  32
ENDBRANCH  30  31
END_RES TYR A 176
BEGIN_RES PHE A 334
REMARK  2 active torsions:
REMARK  status: ('A' for Active; 'I' for Inactive)
REMARK   14  A    between atoms: CA   and  CB  
REMARK   15  A    between atoms: CB   and  CG  
ROOT
ATOM     40  CA  PHE A 334     -39.127 -19.063  -6.357  1.00 81.01     0.180 C 
ENDROOT
BRANCH  40  41
ATOM     41  CB  PHE A 334     -39.065 -17.547  -6.548  1.00 82.48     0.073 C 
BRANCH  41  42
ATOM     42  CG  PHE A 334     -37.668 -16.994  -6.494  1.00 98.57    -0.056 A 
ATOM     43  CD2 PHE A 334     -37.147 -16.495  -5.310  1.00104.24     0.007 A 
ATOM     44  CE2 PHE A 334     -35.859 -15.996  -5.259  1.00108.47     0.001 A 
ATOM     45  CZ  PHE A 334     -35.076 -15.992  -6.395  1.00100.35     0.000 A 
ATOM     46  CE1 PHE A 334     -35.581 -16.489  -7.578  1.00 98.08     0.001 A 
ATOM     47  CD1 PHE A 334     -36.869 -16.989  -7.625  1.00103.86     0.007 A 
ENDBRANCH  41  42
ENDBRANCH  40  41
END_RES PHE A 334
BEGIN_RES PHE A 335
REMARK  2 active torsions:
REMARK  status: ('A' for Active; 'I' for Inactive)
REMARK   16  A    between atoms: CA   and  CB  
REMARK   17  A    between atoms: CB   and  CG  
ROOT
ATOM     48  CA  PHE A 335     -38.518 -19.241  -2.614  1.00 85.14     0.180 C 
ENDROOT
BRANCH  48  49
ATOM     49  CB  PHE A 335     -39.168 -18.292  -1.604  1.00 80.71     0.073 C 
BRANCH  49  50
ATOM     50  CG  PHE A 335     -38.727 -16.862  -1.745  1.00 83.13    -0.056 A 
ATOM     51  CD2 PHE A 335     -39.654 -15.848  -1.916  1.00 91.60     0.007 A 
ATOM     52  CE2 PHE A 335     -39.251 -14.534  -2.045  1.00 97.60     0.001 A 
ATOM     53  CZ  PHE A 335     -37.911 -14.219  -2.000  1.00 97.78     0.000 A 
ATOM     54  CE1 PHE A 335     -36.974 -15.217  -1.826  1.00 95.24     0.001 A 
ATOM     55  CD1 PHE A 335     -37.383 -16.531  -1.699  1.00 89.82     0.007 A 
ENDBRANCH  49  50
ENDBRANCH  48  49
END_RES PHE A 335
BEGIN_RES SER A 336
REMARK  2 active torsions:
REMARK  status: ('A' for Active; 'I' for Inactive)
REMARK   18  A    between atoms: CA   and  CB  
REMARK   19  A    between atoms: CB   and  OG  
ROOT
ATOM     56  CA  SER A 336     -39.180 -22.983  -2.559  1.00102.68     0.185 C 
ENDROOT
BRANCH  56  57
ATOM     57  CB  SER A 336     -40.564 -23.626  -2.601  1.00112.23     0.197 C 
BRANCH  57  58
ATOM     58  OG  SER A 336     -40.553 -24.821  -1.834  1.00126.83    -0.398 OA
ATOM     59  HG  SER A 336     -40.804 -24.625  -0.939  1.00  0.00     0.209 HD
ENDBRANCH  57  58
ENDBRANCH  56  57
END_RES SER A 336
BEGIN_RES LEU A 337
REMARK  2 active torsions:
REMARK  status: ('A' for Active; 'I' for Inactive)
REMARK   20  A    between atoms: CA   and  CB  
REMARK   21  A    between atoms: CB   and  CG  
ROOT
ATOM     60  CA  LEU A 337     -36.886 -23.683  -5.499  1.00120.73     0.176 C 
ENDROOT
BRANCH  60  61
ATOM     61  CB  LEU A 337     -37.281 -23.546  -6.971  1.00120.08     0.038 C 
BRANCH  61  62
ATOM     62  CG  LEU A 337     -37.666 -24.850  -7.674  1.00111.85    -0.020 C 
ATOM     63  CD2 LEU A 337     -36.888 -26.022  -7.094  1.00107.94     0.009 C 
ATOM     64  CD1 LEU A 337     -37.442 -24.747  -9.176  1.00107.35     0.009 C 
ENDBRANCH  61  62
ENDBRANCH  60  61
END_RES LEU A 337
BEGIN_RES PHE A 341
REMARK  2 active torsions:
REMARK  status: ('A' for Active; 'I' for Inactive)
REMARK   22  A    between atoms: CA   and  CB  
REMARK   23  A    between atoms: CB   and  CG  
ROOT
ATOM     65  CA  PHE A 341     -28.541 -18.547  -4.436  1.00133.44     0.180 C 
ENDROOT
BRANCH  65  66
ATOM     66  CB  PHE A 341     -29.475 -19.214  -3.424  1.00125.68     0.073 C 
BRANCH  66  67
ATOM     67  CG  PHE A 341     -29.748 -18.375  -2.210  1.00116.57    -0.056 A 
ATOM     68  CD1 PHE A 341     -29.234 -17.094  -2.106  1.00110.13     0.007 A 
ATOM     69  CE1 PHE A 341     -29.485 -16.319  -0.989  1.00108.78     0.001 A 
ATOM     70  CZ  PHE A 341     -30.256 -16.823   0.039  1.00110.64     0.000 A 
ATOM     71  CE2 PHE A 341     -30.775 -18.099  -0.053  1.00119.85     0.001 A 
ATOM     72  CD2 PHE A 341     -30.521 -18.867  -1.173  1.00119.44     0.007 A 
ENDBRANCH  66  67
ENDBRANCH  65  66
END_RES PHE A 341
BEGIN_RES SER A 438
REMARK  2 active torsions:
REMARK  status: ('A' for Active; 'I' for Inactive)
REMARK   24  A    between atoms: CA   and  CB  
REMARK   25  A    between atoms: CB   and  OG  
ROOT
ATOM     73  CA  SER A 438     -31.508 -27.475   3.470  1.00131.63     0.200 C 
ENDROOT
BRANCH  73  74
ATOM     74  CB  SER A 438     -32.877 -26.840   3.708  1.00123.20     0.199 C 
BRANCH  74  75
ATOM     75  OG  SER A 438     -33.852 -27.409   2.855  1.00118.56    -0.398 OA
ATOM     76  HG  SER A 438     -34.533 -27.838   3.359  1.00  0.00     0.209 HD
ENDBRANCH  74  75
ENDBRANCH  73  74
END_RES SER A 438
BEGIN_RES SER A 439
REMARK  2 active torsions:
REMARK  status: ('A' for Active; 'I' for Inactive)
REMARK   26  A    between atoms: CA   and  CB  
REMARK   27  A    between atoms: CB   and  OG  
ROOT
ATOM     77  CA  SER A 439     -29.132 -26.088   6.093  1.00159.98     0.200 C 
ENDROOT
BRANCH  77  78
ATOM     78  CB  SER A 439     -29.265 -26.283   7.605  1.00158.86     0.199 C 
BRANCH  78  79
ATOM     79  OG  SER A 439     -30.343 -25.531   8.127  1.00158.32    -0.398 OA
ATOM     80  HG  SER A 439     -30.892 -26.062   8.692  1.00  0.00     0.209 HD
ENDBRANCH  78  79
ENDBRANCH  77  78
END_RES SER A 439
BEGIN_RES LEU A 443
REMARK  2 active torsions:
REMARK  status: ('A' for Active; 'I' for Inactive)
REMARK   28  A    between atoms: CA   and  CB  
REMARK   29  A    between atoms: CB   and  CG  
ROOT
ATOM     81  CA  LEU A 443     -23.715 -23.506   4.366  1.00121.76     0.177 C 
ENDROOT
BRANCH  81  82
ATOM     82  CB  LEU A 443     -23.373 -24.191   5.687  1.00125.60     0.038 C 
BRANCH  82  83
ATOM     83  CG  LEU A 443     -22.650 -23.353   6.736  1.00116.63    -0.020 C 
ATOM     84  CD1 LEU A 443     -22.791 -21.880   6.398  1.00120.10     0.009 C 
ATOM     85  CD2 LEU A 443     -23.197 -23.648   8.124  1.00107.05     0.009 C 
ENDBRANCH  82  83
ENDBRANCH  81  82
END_RES LEU A 443
BEGIN_RES THR A 497
REMARK  2 active torsions:
REMARK  status: ('A' for Active; 'I' for Inactive)
REMARK   30  A    between atoms: CA   and  CB  
REMARK   31  A    between atoms: CB   and  OG1 
ROOT
ATOM     86  CA  THR A 497     -33.849 -12.060   3.031  1.00129.91     0.205 C 
ENDROOT
BRANCH  86  87
ATOM     87  CB  THR A 497     -34.076 -13.505   3.465  1.00133.40     0.146 C 
ATOM     88  CG2 THR A 497     -32.927 -13.978   4.326  1.00129.89     0.042 C 
BRANCH  87  89
ATOM     89  OG1 THR A 497     -35.288 -13.601   4.219  1.00141.12    -0.393 OA
ATOM     90  HG1 THR A 497     -35.727 -12.759   4.201  1.00  0.00     0.210 HD
ENDBRANCH  87  89
ENDBRANCH  86  87
END_RES THR A 497
BEGIN_RES VAL A 501
REMARK  1 active torsions:
REMARK  status: ('A' for Active; 'I' for Inactive)
REMARK   32  A    between atoms: CA   and  CB  
ROOT
ATOM     91  CA  VAL A 501     -32.184 -12.633  -2.931  1.00 95.30     0.180 C 
ENDROOT
BRANCH  91  92
ATOM     92  CB  VAL A 501     -32.777 -13.859  -2.277  1.00 80.93     0.009 C 
ATOM     93  CG1 VAL A 501     -32.418 -15.100  -3.042  1.00 82.50     0.012 C 
ATOM     94  CG2 VAL A 501     -32.296 -13.971  -0.864  1.00 93.10     0.012 C 
ENDBRANCH  91  92
END_RES VAL A 501
ENDMDL
MODEL 8
REMARK VINA RESULT:      -7.5      0.962      2.357
REMARK  4 active torsions:
REMARK  status: ('A' for Active; 'I' for Inactive)
REMARK    1  A    between atoms: O_1  and  C_11 
REMARK    2  A    between atoms: C_4  and  C_6 
REMARK    3  A    between atoms: C_6  and  C_10 
REMARK    4  A    between atoms: C_6  and  C_11 
ROOT
ATOM      1  C   LIG d  11     -35.593 -20.998   1.362  0.00  0.00     0.176 C 
ENDROOT
BRANCH   1   2
ATOM      2  C   LIG d  11     -34.593 -19.952   0.759  0.00  0.00     0.081 C 
ATOM      3  N   LIG d  11     -33.279 -20.576   0.458  0.00  0.00     0.230 N 
ATOM      4  C   LIG d  11     -32.322 -19.603  -0.099  0.00  0.00     0.129 C 
ATOM      5  H   LIG d  11     -33.401 -21.366  -0.218  0.00  0.00     0.202 HD
ATOM      6  H   LIG d   1     -32.840 -20.962   1.321  0.00  0.00     0.202 HD
ATOM      7  C   LIG d  11     -32.851 -19.007  -1.407  0.00  0.00     0.051 C 
ATOM      8  C   LIG d  11     -34.195 -18.329  -1.147  0.00  0.00     0.011 C 
ATOM      9  C   LIG d  11     -35.175 -19.340  -0.545  0.00  0.00     0.056 C 
ENDBRANCH   1   2
BRANCH   1  10
ATOM     10  C   LIG d  11     -36.582 -20.346   2.315  0.00  0.00    -0.028 A 
ATOM     11  C   LIG d  11     -36.193 -19.247   3.103  0.00  0.00     0.005 A 
ATOM     12  C   LIG d  11     -37.108 -18.645   3.975  0.00  0.00     0.000 A 
ATOM     13  C   LIG d  11     -38.415 -19.132   4.066  0.00  0.00     0.000 A 
ATOM     14  C   LIG d  11     -38.810 -20.222   3.288  0.00  0.00     0.000 A 
ATOM     15  C   LIG d  11     -37.902 -20.829   2.416  0.00  0.00     0.005 A 
ENDBRANCH   1  10
BRANCH   1  16
ATOM     16  C   LIG d  11     -34.934 -22.144   2.109  0.00  0.00     0.320 C 
ATOM     17  O   LIG d  11     -35.309 -23.298   1.949  0.00  0.00    -0.250 OA
BRANCH  16  18
ATOM     18  O   LIG d  11     -33.890 -21.874   2.934  0.00  0.00    -0.467 OA
ATOM     19  C   LIG d  11     -32.942 -22.811   3.284  0.00  0.00     0.280 C 
ENDBRANCH  16  18
ENDBRANCH   1  16
TORSDOF 4
BEGIN_RES TYR A  95
REMARK  3 active torsions:
REMARK  status: ('A' for Active; 'I' for Inactive)
REMARK    1  A    between atoms: CA   and  CB  
REMARK    2  A    between atoms: CB   and  CG  
REMARK    3  A    between atoms: CZ   and  OH  
ROOT
ATOM      1  CA  TYR A  95     -31.925 -28.740  -0.297  1.00133.41     0.180 C 
ENDROOT
BRANCH   1   2
ATOM      2  CB  TYR A  95     -30.798 -28.162  -1.153  1.00125.17     0.073 C 
BRANCH   2   3
ATOM      3  CG  TYR A  95     -30.822 -26.653  -1.276  1.00112.79    -0.056 A 
ATOM      4  CD2 TYR A  95     -31.030 -26.041  -2.505  1.00117.30     0.010 A 
ATOM      5  CE2 TYR A  95     -31.047 -24.664  -2.625  1.00 96.38     0.037 A 
ATOM      6  CZ  TYR A  95     -30.851 -23.881  -1.511  1.00 94.79     0.065 A 
ATOM      7  CE1 TYR A  95     -30.640 -24.462  -0.278  1.00101.57     0.037 A 
ATOM      8  CD1 TYR A  95     -30.626 -25.840  -0.167  1.00101.86     0.010 A 
BRANCH   6   9
ATOM      9  OH  TYR A  95     -30.866 -22.512  -1.631  1.00 92.45    -0.361 OA
ATOM     10  HH  TYR A  95     -30.123 -22.066  -2.022  1.00  0.00     0.217 HD
ENDBRANCH   6   9
ENDBRANCH   2   3
ENDBRANCH   1   2
END_RES TYR A  95
BEGIN_RES VAL A  97
REMARK  1 active torsions:
REMARK  status: ('A' for Active; 'I' for Inactive)
REMARK    4  A    between atoms: CA   and  CB  
ROOT
ATOM     11  CA  VAL A  97     -37.308 -29.560   0.219  1.00127.45     0.180 C 
ENDROOT
BRANCH  11  12
ATOM     12  CB  VAL A  97     -37.712 -31.031   0.090  1.00120.74     0.009 C 
ATOM     13  CG1 VAL A  97     -38.780 -31.415   1.095  1.00125.88     0.012 C 
ATOM     14  CG2 VAL A  97     -38.217 -31.280  -1.313  1.00109.33     0.012 C 
ENDBRANCH  11  12
END_RES VAL A  97
BEGIN_RES ASP A  98
REMARK  2 active torsions:
REMARK  status: ('A' for Active; 'I' for Inactive)
REMARK    5  A    between atoms: CA   and  CB  
REMARK    6  A    between atoms: CB   and  CG  
ROOT
ATOM     15  CA  ASP A  98     -37.776 -27.901   3.568  1.00121.51     0.186 C 
ENDROOT
BRANCH  15  16
ATOM     16  CB  ASP A  98     -37.062 -26.548   3.544  1.00133.15     0.147 C 
BRANCH  16  17
ATOM     17  CG  ASP A  98     -37.774 -25.526   2.677  1.00138.88     0.175 C 
ATOM     18  OD1 ASP A  98     -38.307 -24.537   3.225  1.00148.86    -0.648 OA
ATOM     19  OD2 ASP A  98     -37.799 -25.715   1.441  1.00136.05    -0.648 OA
ENDBRANCH  16  17
ENDBRANCH  15  16
END_RES ASP A  98
BEGIN_RES ILE A 168
REMARK  2 active torsions:
REMARK  status: ('A' for Active; 'I' for Inactive)
REMARK    7  A    between atoms: CA   and  CB  
REMARK    8  A    between atoms: CB   and  CG1 
ROOT
ATOM     20  CA  ILE A 168     -27.570 -13.292   3.032  1.00105.39     0.180 C 
ENDROOT
BRANCH  20  21
ATOM     21  CB  ILE A 168     -28.093 -13.472   1.597  1.00 97.36     0.013 C 
ATOM     22  CG2 ILE A 168     -29.522 -13.986   1.617  1.00 85.37     0.012 C 
BRANCH  21  23
ATOM     23  CG1 ILE A 168     -28.014 -12.154   0.829  1.00 87.02     0.002 C 
ATOM     24  CD1 ILE A 168     -28.302 -12.305  -0.642  1.00103.08     0.005 C 
ENDBRANCH  21  23
ENDBRANCH  20  21
END_RES ILE A 168
BEGIN_RES ILE A 172
REMARK  2 active torsions:
REMARK  status: ('A' for Active; 'I' for Inactive)
REMARK    9  A    between atoms: CA   and  CB  
REMARK   10  A    between atoms: CB   and  CG1 
ROOT
ATOM     25  CA  ILE A 172     -30.773 -16.881   6.932  1.00 83.45     0.180 C 
ENDROOT
BRANCH  25  26
ATOM     26  CB  ILE A 172     -30.728 -17.561   5.548  1.00 84.33     0.013 C 
ATOM     27  CG2 ILE A 172     -31.849 -18.583   5.416  1.00 83.90     0.012 C 
BRANCH  26  28
ATOM     28  CG1 ILE A 172     -30.829 -16.521   4.430  1.00 82.82     0.002 C 
ATOM     29  CD1 ILE A 172     -31.432 -17.055   3.145  1.00 83.58     0.005 C 
ENDBRANCH  26  28
ENDBRANCH  25  26
END_RES ILE A 172
BEGIN_RES TYR A 176
REMARK  3 active torsions:
REMARK  status: ('A' for Active; 'I' for Inactive)
REMARK   11  A    between atoms: CA   and  CB  
REMARK   12  A    between atoms: CB   and  CG  
REMARK   13  A    between atoms: CZ   and  OH  
ROOT
ATOM     30  CA  TYR A 176     -33.487 -21.009  10.309  1.00102.89     0.180 C 
ENDROOT
BRANCH  30  31
ATOM     31  CB  TYR A 176     -32.812 -21.233   8.952  1.00 95.23     0.073 C 
BRANCH  31  32
ATOM     32  CG  TYR A 176     -33.766 -21.670   7.861  1.00102.16    -0.056 A 
ATOM     33  CD1 TYR A 176     -33.994 -23.016   7.607  1.00107.08     0.010 A 
ATOM     34  CE1 TYR A 176     -34.868 -23.418   6.614  1.00109.98     0.037 A 
ATOM     35  CZ  TYR A 176     -35.527 -22.469   5.862  1.00104.47     0.065 A 
ATOM     36  CE2 TYR A 176     -35.316 -21.127   6.093  1.00114.31     0.037 A 
ATOM     37  CD2 TYR A 176     -34.440 -20.735   7.088  1.00113.84     0.010 A 
BRANCH  35  38
ATOM     38  OH  TYR A 176     -36.395 -22.863   4.872  1.00 89.93    -0.361 OA
ATOM     39  HH  TYR A 176     -36.264 -23.695   4.432  1.00  0.00     0.217 HD
ENDBRANCH  35  38
ENDBRANCH  31  32
ENDBRANCH  30  31
END_RES TYR A 176
BEGIN_RES PHE A 334
REMARK  2 active torsions:
REMARK  status: ('A' for Active; 'I' for Inactive)
REMARK   14  A    between atoms: CA   and  CB  
REMARK   15  A    between atoms: CB   and  CG  
ROOT
ATOM     40  CA  PHE A 334     -39.127 -19.063  -6.357  1.00 81.01     0.180 C 
ENDROOT
BRANCH  40  41
ATOM     41  CB  PHE A 334     -39.065 -17.547  -6.548  1.00 82.48     0.073 C 
BRANCH  41  42
ATOM     42  CG  PHE A 334     -37.668 -16.994  -6.490  1.00 98.57    -0.056 A 
ATOM     43  CD2 PHE A 334     -37.149 -16.501  -5.303  1.00104.24     0.007 A 
ATOM     44  CE2 PHE A 334     -35.861 -16.002  -5.248  1.00108.47     0.001 A 
ATOM     45  CZ  PHE A 334     -35.077 -15.990  -6.384  1.00100.35     0.000 A 
ATOM     46  CE1 PHE A 334     -35.581 -16.481  -7.571  1.00 98.08     0.001 A 
ATOM     47  CD1 PHE A 334     -36.869 -16.981  -7.621  1.00103.86     0.007 A 
ENDBRANCH  41  42
ENDBRANCH  40  41
END_RES PHE A 334
BEGIN_RES PHE A 335
REMARK  2 active torsions:
REMARK  status: ('A' for Active; 'I' for Inactive)
REMARK   16  A    between atoms: CA   and  CB  
REMARK   17  A    between atoms: CB   and  CG  
ROOT
ATOM     48  CA  PHE A 335     -38.518 -19.241  -2.614  1.00 85.14     0.180 C 
ENDROOT
BRANCH  48  49
ATOM     49  CB  PHE A 335     -39.168 -18.292  -1.604  1.00 80.71     0.073 C 
BRANCH  49  50
ATOM     50  CG  PHE A 335     -38.201 -17.340  -0.957  1.00 83.13    -0.056 A 
ATOM     51  CD2 PHE A 335     -38.034 -17.325   0.418  1.00 91.60     0.007 A 
ATOM     52  CE2 PHE A 335     -37.146 -16.453   1.014  1.00 97.60     0.001 A 
ATOM     53  CZ  PHE A 335     -36.410 -15.585   0.238  1.00 97.78     0.000 A 
ATOM     54  CE1 PHE A 335     -36.561 -15.590  -1.133  1.00 95.24     0.001 A 
ATOM     55  CD1 PHE A 335     -37.453 -16.464  -1.725  1.00 89.82     0.007 A 
ENDBRANCH  49  50
ENDBRANCH  48  49
END_RES PHE A 335
BEGIN_RES SER A 336
REMARK  2 active torsions:
REMARK  status: ('A' for Active; 'I' for Inactive)
REMARK   18  A    between atoms: CA   and  CB  
REMARK   19  A    between atoms: CB   and  OG  
ROOT
ATOM     56  CA  SER A 336     -39.180 -22.983  -2.559  1.00102.68     0.185 C 
ENDROOT
BRANCH  56  57
ATOM     57  CB  SER A 336     -40.564 -23.626  -2.601  1.00112.23     0.197 C 
BRANCH  57  58
ATOM     58  OG  SER A 336     -40.553 -24.821  -1.833  1.00126.83    -0.398 OA
ATOM     59  HG  SER A 336     -40.373 -24.611  -0.925  1.00  0.00     0.209 HD
ENDBRANCH  57  58
ENDBRANCH  56  57
END_RES SER A 336
BEGIN_RES LEU A 337
REMARK  2 active torsions:
REMARK  status: ('A' for Active; 'I' for Inactive)
REMARK   20  A    between atoms: CA   and  CB  
REMARK   21  A    between atoms: CB   and  CG  
ROOT
ATOM     60  CA  LEU A 337     -36.886 -23.683  -5.499  1.00120.73     0.176 C 
ENDROOT
BRANCH  60  61
ATOM     61  CB  LEU A 337     -37.281 -23.546  -6.971  1.00120.08     0.038 C 
BRANCH  61  62
ATOM     62  CG  LEU A 337     -37.662 -24.850  -7.676  1.00111.85    -0.020 C 
ATOM     63  CD2 LEU A 337     -36.878 -26.021  -7.098  1.00107.94     0.009 C 
ATOM     64  CD1 LEU A 337     -37.440 -24.744  -9.177  1.00107.35     0.009 C 
ENDBRANCH  61  62
ENDBRANCH  60  61
END_RES LEU A 337
BEGIN_RES PHE A 341
REMARK  2 active torsions:
REMARK  status: ('A' for Active; 'I' for Inactive)
REMARK   22  A    between atoms: CA   and  CB  
REMARK   23  A    between atoms: CB   and  CG  
ROOT
ATOM     65  CA  PHE A 341     -28.541 -18.547  -4.436  1.00133.44     0.180 C 
ENDROOT
BRANCH  65  66
ATOM     66  CB  PHE A 341     -29.475 -19.214  -3.424  1.00125.68     0.073 C 
BRANCH  66  67
ATOM     67  CG  PHE A 341     -29.293 -18.721  -2.018  1.00116.57    -0.056 A 
ATOM     68  CD1 PHE A 341     -28.868 -19.579  -1.018  1.00110.13     0.007 A 
ATOM     69  CE1 PHE A 341     -28.700 -19.127   0.278  1.00108.78     0.001 A 
ATOM     70  CZ  PHE A 341     -28.956 -17.805   0.585  1.00110.64     0.000 A 
ATOM     71  CE2 PHE A 341     -29.379 -16.940  -0.404  1.00119.85     0.001 A 
ATOM     72  CD2 PHE A 341     -29.545 -17.399  -1.697  1.00119.44     0.007 A 
ENDBRANCH  66  67
ENDBRANCH  65  66
END_RES PHE A 341
BEGIN_RES SER A 438
REMARK  2 active torsions:
REMARK  status: ('A' for Active; 'I' for Inactive)
REMARK   24  A    between atoms: CA   and  CB  
REMARK   25  A    between atoms: CB   and  OG  
ROOT
ATOM     73  CA  SER A 438     -31.508 -27.475   3.470  1.00131.63     0.200 C 
ENDROOT
BRANCH  73  74
ATOM     74  CB  SER A 438     -32.877 -26.840   3.708  1.00123.20     0.199 C 
BRANCH  74  75
ATOM     75  OG  SER A 438     -33.862 -27.444   2.891  1.00118.56    -0.398 OA
ATOM     76  HG  SER A 438     -34.517 -26.809   2.626  1.00  0.00     0.209 HD
ENDBRANCH  74  75
ENDBRANCH  73  74
END_RES SER A 438
BEGIN_RES SER A 439
REMARK  2 active torsions:
REMARK  status: ('A' for Active; 'I' for Inactive)
REMARK   26  A    between atoms: CA   and  CB  
REMARK   27  A    between atoms: CB   and  OG  
ROOT
ATOM     77  CA  SER A 439     -29.132 -26.088   6.093  1.00159.98     0.200 C 
ENDROOT
BRANCH  77  78
ATOM     78  CB  SER A 439     -29.265 -26.283   7.605  1.00158.86     0.199 C 
BRANCH  78  79
ATOM     79  OG  SER A 439     -30.341 -25.529   8.127  1.00158.32    -0.398 OA
ATOM     80  HG  SER A 439     -31.040 -25.438   7.490  1.00  0.00     0.209 HD
ENDBRANCH  78  79
ENDBRANCH  77  78
END_RES SER A 439
BEGIN_RES LEU A 443
REMARK  2 active torsions:
REMARK  status: ('A' for Active; 'I' for Inactive)
REMARK   28  A    between atoms: CA   and  CB  
REMARK   29  A    between atoms: CB   and  CG  
ROOT
ATOM     81  CA  LEU A 443     -23.715 -23.506   4.366  1.00121.76     0.177 C 
ENDROOT
BRANCH  81  82
ATOM     82  CB  LEU A 443     -23.373 -24.191   5.687  1.00125.60     0.038 C 
BRANCH  82  83
ATOM     83  CG  LEU A 443     -22.650 -23.353   6.736  1.00116.63    -0.020 C 
ATOM     84  CD1 LEU A 443     -22.792 -21.880   6.399  1.00120.10     0.009 C 
ATOM     85  CD2 LEU A 443     -23.197 -23.648   8.125  1.00107.05     0.009 C 
ENDBRANCH  82  83
ENDBRANCH  81  82
END_RES LEU A 443
BEGIN_RES THR A 497
REMARK  2 active torsions:
REMARK  status: ('A' for Active; 'I' for Inactive)
REMARK   30  A    between atoms: CA   and  CB  
REMARK   31  A    between atoms: CB   and  OG1 
ROOT
ATOM     86  CA  THR A 497     -33.849 -12.060   3.031  1.00129.91     0.205 C 
ENDROOT
BRANCH  86  87
ATOM     87  CB  THR A 497     -34.076 -13.505   3.465  1.00133.40     0.146 C 
ATOM     88  CG2 THR A 497     -32.993 -13.937   4.428  1.00129.89     0.042 C 
BRANCH  87  89
ATOM     89  OG1 THR A 497     -35.345 -13.624   4.115  1.00141.12    -0.393 OA
ATOM     90  HG1 THR A 497     -35.754 -12.767   4.146  1.00  0.00     0.210 HD
ENDBRANCH  87  89
ENDBRANCH  86  87
END_RES THR A 497
BEGIN_RES VAL A 501
REMARK  1 active torsions:
REMARK  status: ('A' for Active; 'I' for Inactive)
REMARK   32  A    between atoms: CA   and  CB  
ROOT
ATOM     91  CA  VAL A 501     -32.184 -12.633  -2.931  1.00 95.30     0.180 C 
ENDROOT
BRANCH  91  92
ATOM     92  CB  VAL A 501     -32.777 -13.859  -2.277  1.00 80.93     0.009 C 
ATOM     93  CG1 VAL A 501     -32.609 -15.067  -3.152  1.00 82.50     0.012 C 
ATOM     94  CG2 VAL A 501     -32.131 -14.095  -0.948  1.00 93.10     0.012 C 
ENDBRANCH  91  92
END_RES VAL A 501
ENDMDL
MODEL 9
REMARK VINA RESULT:      -7.5      1.867      3.588
REMARK  4 active torsions:
REMARK  status: ('A' for Active; 'I' for Inactive)
REMARK    1  A    between atoms: O_1  and  C_11 
REMARK    2  A    between atoms: C_4  and  C_6 
REMARK    3  A    between atoms: C_6  and  C_10 
REMARK    4  A    between atoms: C_6  and  C_11 
ROOT
ATOM      1  C   LIG d  11     -37.881 -17.091   2.561  0.00  0.00     0.176 C 
ENDROOT
BRANCH   1   2
ATOM      2  C   LIG d  11     -38.998 -16.367   1.733  0.00  0.00     0.081 C 
ATOM      3  N   LIG d  11     -40.353 -16.762   2.197  0.00  0.00     0.230 N 
ATOM      4  C   LIG d  11     -41.416 -16.098   1.421  0.00  0.00     0.129 C 
ATOM      5  H   LIG d  11     -40.469 -16.530   3.211  0.00  0.00     0.202 HD
ATOM      6  H   LIG d   1     -40.502 -17.788   2.087  0.00  0.00     0.202 HD
ATOM      7  C   LIG d  11     -41.318 -14.576   1.555  0.00  0.00     0.051 C 
ATOM      8  C   LIG d  11     -39.947 -14.112   1.067  0.00  0.00     0.011 C 
ATOM      9  C   LIG d  11     -38.848 -14.825   1.861  0.00  0.00     0.056 C 
ENDBRANCH   1   2
BRANCH   1  10
ATOM     10  C   LIG d  11     -36.629 -17.326   1.731  0.00  0.00    -0.028 A 
ATOM     11  C   LIG d  11     -35.630 -16.338   1.653  0.00  0.00     0.005 A 
ATOM     12  C   LIG d  11     -34.476 -16.560   0.893  0.00  0.00     0.000 A 
ATOM     13  C   LIG d  11     -34.308 -17.766   0.209  0.00  0.00     0.000 A 
ATOM     14  C   LIG d  11     -35.293 -18.753   0.280  0.00  0.00     0.000 A 
ATOM     15  C   LIG d  11     -36.449 -18.538   1.035  0.00  0.00     0.005 A 
ENDBRANCH   1  10
BRANCH   1  16
ATOM     16  C   LIG d  11     -38.295 -18.432   3.142  0.00  0.00     0.320 C 
ATOM     17  O   LIG d  11     -37.955 -18.760   4.271  0.00  0.00    -0.250 OA
BRANCH  16  18
ATOM     18  O   LIG d  11     -39.086 -19.251   2.402  0.00  0.00    -0.467 OA
ATOM     19  C   LIG d  11     -39.417 -20.532   2.788  0.00  0.00     0.280 C 
ENDBRANCH  16  18
ENDBRANCH   1  16
TORSDOF 4
BEGIN_RES TYR A  95
REMARK  3 active torsions:
REMARK  status: ('A' for Active; 'I' for Inactive)
REMARK    1  A    between atoms: CA   and  CB  
REMARK    2  A    between atoms: CB   and  CG  
REMARK    3  A    between atoms: CZ   and  OH  
ROOT
ATOM      1  CA  TYR A  95     -31.925 -28.740  -0.297  1.00133.41     0.180 C 
ENDROOT
BRANCH   1   2
ATOM      2  CB  TYR A  95     -30.798 -28.162  -1.153  1.00125.17     0.073 C 
BRANCH   2   3
ATOM      3  CG  TYR A  95     -30.817 -26.652  -1.270  1.00112.79    -0.056 A 
ATOM      4  CD2 TYR A  95     -30.629 -25.848  -0.155  1.00117.30     0.010 A 
ATOM      5  CE2 TYR A  95     -30.650 -24.469  -0.254  1.00 96.38     0.037 A 
ATOM      6  CZ  TYR A  95     -30.867 -23.878  -1.478  1.00 94.79     0.065 A 
ATOM      7  CE1 TYR A  95     -31.060 -24.653  -2.602  1.00101.57     0.037 A 
ATOM      8  CD1 TYR A  95     -31.034 -26.032  -2.494  1.00101.86     0.010 A 
BRANCH   6   9
ATOM      9  OH  TYR A  95     -30.891 -22.508  -1.576  1.00 92.45    -0.361 OA
ATOM     10  HH  TYR A  95     -30.483 -22.083  -2.322  1.00  0.00     0.217 HD
ENDBRANCH   6   9
ENDBRANCH   2   3
ENDBRANCH   1   2
END_RES TYR A  95
BEGIN_RES VAL A  97
REMARK  1 active torsions:
REMARK  status: ('A' for Active; 'I' for Inactive)
REMARK    4  A    between atoms: CA   and  CB  
ROOT
ATOM     11  CA  VAL A  97     -37.308 -29.560   0.219  1.00127.45     0.180 C 
ENDROOT
BRANCH  11  12
ATOM     12  CB  VAL A  97     -37.712 -31.031   0.090  1.00120.74     0.009 C 
ATOM     13  CG1 VAL A  97     -38.780 -31.415   1.094  1.00125.88     0.012 C 
ATOM     14  CG2 VAL A  97     -38.217 -31.280  -1.313  1.00109.33     0.012 C 
ENDBRANCH  11  12
END_RES VAL A  97
BEGIN_RES ASP A  98
REMARK  2 active torsions:
REMARK  status: ('A' for Active; 'I' for Inactive)
REMARK    5  A    between atoms: CA   and  CB  
REMARK    6  A    between atoms: CB   and  CG  
ROOT
ATOM     15  CA  ASP A  98     -37.776 -27.901   3.568  1.00121.51     0.186 C 
ENDROOT
BRANCH  15  16
ATOM     16  CB  ASP A  98     -37.062 -26.548   3.544  1.00133.15     0.147 C 
BRANCH  16  17
ATOM     17  CG  ASP A  98     -37.115 -25.883   2.181  1.00138.88     0.175 C 
ATOM     18  OD1 ASP A  98     -38.218 -25.479   1.750  1.00148.86    -0.648 OA
ATOM     19  OD2 ASP A  98     -36.049 -25.764   1.540  1.00136.05    -0.648 OA
ENDBRANCH  16  17
ENDBRANCH  15  16
END_RES ASP A  98
BEGIN_RES ILE A 168
REMARK  2 active torsions:
REMARK  status: ('A' for Active; 'I' for Inactive)
REMARK    7  A    between atoms: CA   and  CB  
REMARK    8  A    between atoms: CB   and  CG1 
ROOT
ATOM     20  CA  ILE A 168     -27.570 -13.292   3.032  1.00105.39     0.180 C 
ENDROOT
BRANCH  20  21
ATOM     21  CB  ILE A 168     -28.093 -13.472   1.597  1.00 97.36     0.013 C 
ATOM     22  CG2 ILE A 168     -29.561 -13.862   1.616  1.00 85.37     0.012 C 
BRANCH  21  23
ATOM     23  CG1 ILE A 168     -27.894 -12.191   0.790  1.00 87.02     0.002 C 
ATOM     24  CD1 ILE A 168     -28.303 -12.328  -0.654  1.00103.08     0.005 C 
ENDBRANCH  21  23
ENDBRANCH  20  21
END_RES ILE A 168
BEGIN_RES ILE A 172
REMARK  2 active torsions:
REMARK  status: ('A' for Active; 'I' for Inactive)
REMARK    9  A    between atoms: CA   and  CB  
REMARK   10  A    between atoms: CB   and  CG1 
ROOT
ATOM     25  CA  ILE A 172     -30.773 -16.881   6.932  1.00 83.45     0.180 C 
ENDROOT
BRANCH  25  26
ATOM     26  CB  ILE A 172     -30.728 -17.561   5.548  1.00 84.33     0.013 C 
ATOM     27  CG2 ILE A 172     -30.365 -19.034   5.686  1.00 83.90     0.012 C 
BRANCH  26  28
ATOM     28  CG1 ILE A 172     -32.070 -17.414   4.829  1.00 82.82     0.002 C 
ATOM     29  CD1 ILE A 172     -32.117 -18.086   3.469  1.00 83.58     0.005 C 
ENDBRANCH  26  28
ENDBRANCH  25  26
END_RES ILE A 172
BEGIN_RES TYR A 176
REMARK  3 active torsions:
REMARK  status: ('A' for Active; 'I' for Inactive)
REMARK   11  A    between atoms: CA   and  CB  
REMARK   12  A    between atoms: CB   and  CG  
REMARK   13  A    between atoms: CZ   and  OH  
ROOT
ATOM     30  CA  TYR A 176     -33.487 -21.009  10.309  1.00102.89     0.180 C 
ENDROOT
BRANCH  30  31
ATOM     31  CB  TYR A 176     -32.812 -21.233   8.952  1.00 95.23     0.073 C 
BRANCH  31  32
ATOM     32  CG  TYR A 176     -33.771 -21.205   7.782  1.00102.16    -0.056 A 
ATOM     33  CD1 TYR A 176     -33.566 -20.348   6.709  1.00107.08     0.010 A 
ATOM     34  CE1 TYR A 176     -34.438 -20.324   5.636  1.00109.98     0.037 A 
ATOM     35  CZ  TYR A 176     -35.531 -21.164   5.628  1.00104.47     0.065 A 
ATOM     36  CE2 TYR A 176     -35.758 -22.023   6.682  1.00114.31     0.037 A 
ATOM     37  CD2 TYR A 176     -34.880 -22.039   7.750  1.00113.84     0.010 A 
BRANCH  35  38
ATOM     38  OH  TYR A 176     -36.402 -21.142   4.565  1.00 89.93    -0.361 OA
ATOM     39  HH  TYR A 176     -37.263 -21.536   4.651  1.00  0.00     0.217 HD
ENDBRANCH  35  38
ENDBRANCH  31  32
ENDBRANCH  30  31
END_RES TYR A 176
BEGIN_RES PHE A 334
REMARK  2 active torsions:
REMARK  status: ('A' for Active; 'I' for Inactive)
REMARK   14  A    between atoms: CA   and  CB  
REMARK   15  A    between atoms: CB   and  CG  
ROOT
ATOM     40  CA  PHE A 334     -39.127 -19.063  -6.357  1.00 81.01     0.180 C 
ENDROOT
BRANCH  40  41
ATOM     41  CB  PHE A 334     -39.065 -17.547  -6.548  1.00 82.48     0.073 C 
BRANCH  41  42
ATOM     42  CG  PHE A 334     -37.671 -16.990  -6.465  1.00 98.57    -0.056 A 
ATOM     43  CD2 PHE A 334     -36.843 -16.979  -7.577  1.00104.24     0.007 A 
ATOM     44  CE2 PHE A 334     -35.565 -16.458  -7.502  1.00108.47     0.001 A 
ATOM     45  CZ  PHE A 334     -35.101 -15.940  -6.310  1.00100.35     0.000 A 
ATOM     46  CE1 PHE A 334     -35.915 -15.942  -5.197  1.00 98.08     0.001 A 
ATOM     47  CD1 PHE A 334     -37.193 -16.463  -5.277  1.00103.86     0.007 A 
ENDBRANCH  41  42
ENDBRANCH  40  41
END_RES PHE A 334
BEGIN_RES PHE A 335
REMARK  2 active torsions:
REMARK  status: ('A' for Active; 'I' for Inactive)
REMARK   16  A    between atoms: CA   and  CB  
REMARK   17  A    between atoms: CB   and  CG  
ROOT
ATOM     48  CA  PHE A 335     -38.518 -19.241  -2.614  1.00 85.14     0.180 C 
ENDROOT
BRANCH  48  49
ATOM     49  CB  PHE A 335     -39.168 -18.292  -1.604  1.00 80.71     0.073 C 
BRANCH  49  50
ATOM     50  CG  PHE A 335     -38.797 -16.848  -1.803  1.00 83.13    -0.056 A 
ATOM     51  CD2 PHE A 335     -37.491 -16.422  -1.630  1.00 91.60     0.007 A 
ATOM     52  CE2 PHE A 335     -37.149 -15.098  -1.813  1.00 97.60     0.001 A 
ATOM     53  CZ  PHE A 335     -38.113 -14.182  -2.174  1.00 97.78     0.000 A 
ATOM     54  CE1 PHE A 335     -39.418 -14.592  -2.355  1.00 95.24     0.001 A 
ATOM     55  CD1 PHE A 335     -39.756 -15.919  -2.169  1.00 89.82     0.007 A 
ENDBRANCH  49  50
ENDBRANCH  48  49
END_RES PHE A 335
BEGIN_RES SER A 336
REMARK  2 active torsions:
REMARK  status: ('A' for Active; 'I' for Inactive)
REMARK   18  A    between atoms: CA   and  CB  
REMARK   19  A    between atoms: CB   and  OG  
ROOT
ATOM     56  CA  SER A 336     -39.180 -22.983  -2.559  1.00102.68     0.185 C 
ENDROOT
BRANCH  56  57
ATOM     57  CB  SER A 336     -40.564 -23.626  -2.601  1.00112.23     0.197 C 
BRANCH  57  58
ATOM     58  OG  SER A 336     -40.556 -24.815  -1.825  1.00126.83    -0.398 OA
ATOM     59  HG  SER A 336     -39.708 -25.236  -1.899  1.00  0.00     0.209 HD
ENDBRANCH  57  58
ENDBRANCH  56  57
END_RES SER A 336
BEGIN_RES LEU A 337
REMARK  2 active torsions:
REMARK  status: ('A' for Active; 'I' for Inactive)
REMARK   20  A    between atoms: CA   and  CB  
REMARK   21  A    between atoms: CB   and  CG  
ROOT
ATOM     60  CA  LEU A 337     -36.886 -23.683  -5.499  1.00120.73     0.176 C 
ENDROOT
BRANCH  60  61
ATOM     61  CB  LEU A 337     -37.281 -23.546  -6.971  1.00120.08     0.038 C 
BRANCH  61  62
ATOM     62  CG  LEU A 337     -37.659 -24.851  -7.677  1.00111.85    -0.020 C 
ATOM     63  CD2 LEU A 337     -36.871 -26.019  -7.101  1.00107.94     0.009 C 
ATOM     64  CD1 LEU A 337     -37.439 -24.742  -9.178  1.00107.35     0.009 C 
ENDBRANCH  61  62
ENDBRANCH  60  61
END_RES LEU A 337
BEGIN_RES PHE A 341
REMARK  2 active torsions:
REMARK  status: ('A' for Active; 'I' for Inactive)
REMARK   22  A    between atoms: CA   and  CB  
REMARK   23  A    between atoms: CB   and  CG  
ROOT
ATOM     65  CA  PHE A 341     -28.541 -18.547  -4.436  1.00133.44     0.180 C 
ENDROOT
BRANCH  65  66
ATOM     66  CB  PHE A 341     -29.475 -19.214  -3.424  1.00125.68     0.073 C 
BRANCH  66  67
ATOM     67  CG  PHE A 341     -29.742 -18.378  -2.206  1.00116.57    -0.056 A 
ATOM     68  CD1 PHE A 341     -30.486 -18.882  -1.153  1.00110.13     0.007 A 
ATOM     69  CE1 PHE A 341     -30.733 -18.113  -0.031  1.00108.78     0.001 A 
ATOM     70  CZ  PHE A 341     -30.235 -16.828   0.048  1.00110.64     0.000 A 
ATOM     71  CE2 PHE A 341     -29.491 -16.315  -0.996  1.00119.85     0.001 A 
ATOM     72  CD2 PHE A 341     -29.248 -17.089  -2.114  1.00119.44     0.007 A 
ENDBRANCH  66  67
ENDBRANCH  65  66
END_RES PHE A 341
BEGIN_RES SER A 438
REMARK  2 active torsions:
REMARK  status: ('A' for Active; 'I' for Inactive)
REMARK   24  A    between atoms: CA   and  CB  
REMARK   25  A    between atoms: CB   and  OG  
ROOT
ATOM     73  CA  SER A 438     -31.508 -27.475   3.470  1.00131.63     0.200 C 
ENDROOT
BRANCH  73  74
ATOM     74  CB  SER A 438     -32.877 -26.840   3.708  1.00123.20     0.199 C 
BRANCH  74  75
ATOM     75  OG  SER A 438     -33.853 -27.414   2.860  1.00118.56    -0.398 OA
ATOM     76  HG  SER A 438     -34.627 -27.660   3.353  1.00  0.00     0.209 HD
ENDBRANCH  74  75
ENDBRANCH  73  74
END_RES SER A 438
BEGIN_RES SER A 439
REMARK  2 active torsions:
REMARK  status: ('A' for Active; 'I' for Inactive)
REMARK   26  A    between atoms: CA   and  CB  
REMARK   27  A    between atoms: CB   and  OG  
ROOT
ATOM     77  CA  SER A 439     -29.132 -26.088   6.093  1.00159.98     0.200 C 
ENDROOT
BRANCH  77  78
ATOM     78  CB  SER A 439     -29.265 -26.283   7.605  1.00158.86     0.199 C 
BRANCH  78  79
ATOM     79  OG  SER A 439     -30.340 -25.528   8.127  1.00158.32    -0.398 OA
ATOM     80  HG  SER A 439     -30.321 -25.512   9.077  1.00  0.00     0.209 HD
ENDBRANCH  78  79
ENDBRANCH  77  78
END_RES SER A 439
BEGIN_RES LEU A 443
REMARK  2 active torsions:
REMARK  status: ('A' for Active; 'I' for Inactive)
REMARK   28  A    between atoms: CA   and  CB  
REMARK   29  A    between atoms: CB   and  CG  
ROOT
ATOM     81  CA  LEU A 443     -23.715 -23.506   4.366  1.00121.76     0.177 C 
ENDROOT
BRANCH  81  82
ATOM     82  CB  LEU A 443     -23.373 -24.191   5.687  1.00125.60     0.038 C 
BRANCH  82  83
ATOM     83  CG  LEU A 443     -22.652 -23.352   6.737  1.00116.63    -0.020 C 
ATOM     84  CD1 LEU A 443     -22.797 -21.879   6.401  1.00120.10     0.009 C 
ATOM     85  CD2 LEU A 443     -23.198 -23.650   8.125  1.00107.05     0.009 C 
ENDBRANCH  82  83
ENDBRANCH  81  82
END_RES LEU A 443
BEGIN_RES THR A 497
REMARK  2 active torsions:
REMARK  status: ('A' for Active; 'I' for Inactive)
REMARK   30  A    between atoms: CA   and  CB  
REMARK   31  A    between atoms: CB   and  OG1 
ROOT
ATOM     86  CA  THR A 497     -33.849 -12.060   3.031  1.00129.91     0.205 C 
ENDROOT
BRANCH  86  87
ATOM     87  CB  THR A 497     -34.076 -13.505   3.465  1.00133.40     0.146 C 
ATOM     88  CG2 THR A 497     -32.904 -13.994   4.286  1.00129.89     0.042 C 
BRANCH  87  89
ATOM     89  OG1 THR A 497     -35.264 -13.594   4.257  1.00141.12    -0.393 OA
ATOM     90  HG1 THR A 497     -35.436 -12.744   4.647  1.00  0.00     0.210 HD
ENDBRANCH  87  89
ENDBRANCH  86  87
END_RES THR A 497
BEGIN_RES VAL A 501
REMARK  1 active torsions:
REMARK  status: ('A' for Active; 'I' for Inactive)
REMARK   32  A    between atoms: CA   and  CB  
ROOT
ATOM     91  CA  VAL A 501     -32.184 -12.633  -2.931  1.00 95.30     0.180 C 
ENDROOT
BRANCH  91  92
ATOM     92  CB  VAL A 501     -32.777 -13.859  -2.277  1.00 80.93     0.009 C 
ATOM     93  CG1 VAL A 501     -32.421 -15.099  -3.044  1.00 82.50     0.012 C 
ATOM     94  CG2 VAL A 501     -32.293 -13.973  -0.865  1.00 93.10     0.012 C 
ENDBRANCH  91  92
END_RES VAL A 501
ENDMDL
