MODEL 1
REMARK VINA RESULT:      -0.0      0.000      0.000
REMARK  7 active torsions:
REMARK  status: ('A' for Active; 'I' for Inactive)
REMARK    1  A    between atoms: O_1  and  C_2 
REMARK    2  A    between atoms: C_2  and  C_4 
REMARK    3  A    between atoms: C_17  and  C_22 
REMARK    4  A    between atoms: C_19  and  O_20 
REMARK    5  A    between atoms: C_22  and  C_23 
REMARK    6  A    between atoms: C_23  and  C_24 
REMARK    7  A    between atoms: C_24  and  C_25 
ROOT
ATOM      1  C   UNL d   1     221.793 103.353  18.446  0.00  0.00    -0.049 C 
ATOM      2  C   UNL d   1     222.608 102.431  19.341  0.00  0.00     0.037 C 
ATOM      3  C   UNL d   1     221.729 101.776  20.444  0.00  0.00     0.013 C 
ATOM      4  C   UNL d   1     220.631 103.688  18.932  0.00  0.00    -0.037 C 
ATOM      5  C   UNL d   1     219.726 103.346  20.037  0.00  0.00     0.065 C 
ATOM      6  C   UNL d   1     220.723 102.777  21.100  0.00  0.00     0.033 C 
ATOM      7  C   UNL d   1     219.963 102.222  22.319  0.00  0.00     0.065 C 
ATOM      8  C   UNL d   1     220.909 102.136  23.531  0.00  0.00     0.046 C 
ATOM      9  C   UNL d   1     219.347 100.838  22.077  0.00  0.00     0.046 C 
ATOM     10  O   UNL d   1     218.902 103.074  22.775  0.00  0.00    -0.340 OA
ATOM     11  C   UNL d   1     218.520 104.154  22.035  0.00  0.00     0.080 A 
ATOM     12  C   UNL d   1     218.873 104.388  20.704  0.00  0.00     0.017 A 
ATOM     13  C   UNL d   1     217.679 105.024  22.728  0.00  0.00     0.044 A 
ATOM     14  C   UNL d   1     217.138 106.164  22.126  0.00  0.00    -0.053 A 
ATOM     15  C   UNL d   1     217.457 106.402  20.787  0.00  0.00     0.044 A 
ATOM     16  C   UNL d   1     218.295 105.507  20.085  0.00  0.00     0.075 A 
ENDROOT
BRANCH  14  17
ATOM     17  C   UNL d   1     216.300 107.051  23.013  0.00  0.00     0.039 C 
BRANCH  17  18
ATOM     18  C   UNL d   1     216.935 107.741  24.224  0.00  0.00     0.005 C 
BRANCH  18  19
ATOM     19  C   UNL d   1     218.093 108.626  23.732  0.00  0.00    -0.000 C 
BRANCH  19  20
ATOM     20  C   UNL d   1     219.464 108.148  24.202  0.00  0.00    -0.005 C 
ATOM     21  C   UNL d   1     220.326 107.732  23.017  0.00  0.00     0.005 C 
ENDBRANCH  19  20
ENDBRANCH  18  19
ENDBRANCH  17  18
ENDBRANCH  14  17
BRANCH  16  22
ATOM     22  O   UNL d   1     218.524 105.724  18.753  0.00  0.00    -0.360 OA
ATOM     23  H   UNL d   1     218.856 104.904  18.353  0.00  0.00     0.217 HD
ENDBRANCH  16  22
BRANCH   1  24
ATOM     24  C   UNL d   1     222.380 103.749  17.135  0.00  0.00     0.199 C 
BRANCH  24  25
ATOM     25  O   UNL d   1     221.532 104.720  16.534  0.00  0.00    -0.397 OA
ATOM     26  H   UNL d   1     221.246 105.320  17.242  0.00  0.00     0.209 HD
ENDBRANCH  24  25
ENDBRANCH   1  24
TORSDOF 7
ENDMDL
MODEL 2
REMARK VINA RESULT:      -0.0     33.716     36.250
REMARK  7 active torsions:
REMARK  status: ('A' for Active; 'I' for Inactive)
REMARK    1  A    between atoms: O_1  and  C_2 
REMARK    2  A    between atoms: C_2  and  C_4 
REMARK    3  A    between atoms: C_17  and  C_22 
REMARK    4  A    between atoms: C_19  and  O_20 
REMARK    5  A    between atoms: C_22  and  C_23 
REMARK    6  A    between atoms: C_23  and  C_24 
REMARK    7  A    between atoms: C_24  and  C_25 
ROOT
ATOM      1  C   UNL d   1     229.563 113.073 -10.974  0.00  0.00    -0.049 C 
ATOM      2  C   UNL d   1     230.897 112.776 -11.643  0.00  0.00     0.037 C 
ATOM      3  C   UNL d   1     230.736 112.567 -13.176  0.00  0.00     0.013 C 
ATOM      4  C   UNL d   1     228.520 112.783 -11.698  0.00  0.00    -0.037 C 
ATOM      5  C   UNL d   1     228.168 112.386 -13.067  0.00  0.00     0.065 C 
ATOM      6  C   UNL d   1     229.490 111.700 -13.548  0.00  0.00     0.033 C 
ATOM      7  C   UNL d   1     229.394 111.314 -15.036  0.00  0.00     0.065 C 
ATOM      8  C   UNL d   1     230.438 110.232 -15.364  0.00  0.00     0.046 C 
ATOM      9  C   UNL d   1     229.597 112.498 -15.989  0.00  0.00     0.046 C 
ATOM     10  O   UNL d   1     228.146 110.703 -15.394  0.00  0.00    -0.340 OA
ATOM     11  C   UNL d   1     227.110 110.682 -14.508  0.00  0.00     0.080 A 
ATOM     12  C   UNL d   1     227.026 111.449 -13.343  0.00  0.00     0.017 A 
ATOM     13  C   UNL d   1     226.075 109.828 -14.893  0.00  0.00     0.044 A 
ATOM     14  C   UNL d   1     224.902 109.706 -14.143  0.00  0.00    -0.053 A 
ATOM     15  C   UNL d   1     224.787 110.484 -12.990  0.00  0.00     0.044 A 
ATOM     16  C   UNL d   1     225.830 111.361 -12.615  0.00  0.00     0.075 A 
ENDROOT
BRANCH  14  17
ATOM     17  C   UNL d   1     223.897 108.697 -14.640  0.00  0.00     0.039 C 
BRANCH  17  18
ATOM     18  C   UNL d   1     224.266 107.211 -14.689  0.00  0.00     0.005 C 
BRANCH  18  19
ATOM     19  C   UNL d   1     224.643 106.752 -13.270  0.00  0.00    -0.000 C 
BRANCH  19  20
ATOM     20  C   UNL d   1     226.112 106.366 -13.128  0.00  0.00    -0.005 C 
ATOM     21  C   UNL d   1     226.825 107.301 -12.159  0.00  0.00     0.005 C 
ENDBRANCH  19  20
ENDBRANCH  18  19
ENDBRANCH  17  18
ENDBRANCH  14  17
BRANCH  16  22
ATOM     22  O   UNL d   1     225.654 112.168 -11.524  0.00  0.00    -0.360 OA
ATOM     23  H   UNL d   1     226.199 112.964 -11.630  0.00  0.00     0.217 HD
ENDBRANCH  16  22
BRANCH   1  24
ATOM     24  C   UNL d   1     229.587 113.669  -9.608  0.00  0.00     0.199 C 
BRANCH  24  25
ATOM     25  O   UNL d   1     228.253 113.727  -9.116  0.00  0.00    -0.397 OA
ATOM     26  H   UNL d   1     227.784 112.963  -9.488  0.00  0.00     0.209 HD
ENDBRANCH  24  25
ENDBRANCH   1  24
TORSDOF 7
ENDMDL
MODEL 3
REMARK VINA RESULT:       0.0     24.091     26.440
REMARK  7 active torsions:
REMARK  status: ('A' for Active; 'I' for Inactive)
REMARK    1  A    between atoms: O_1  and  C_2 
REMARK    2  A    between atoms: C_2  and  C_4 
REMARK    3  A    between atoms: C_17  and  C_22 
REMARK    4  A    between atoms: C_19  and  O_20 
REMARK    5  A    between atoms: C_22  and  C_23 
REMARK    6  A    between atoms: C_23  and  C_24 
REMARK    7  A    between atoms: C_24  and  C_25 
ROOT
ATOM      1  C   UNL d   1     209.573 102.250  -3.880  0.00  0.00    -0.049 C 
ATOM      2  C   UNL d   1     210.848 101.856  -3.149  0.00  0.00     0.037 C 
ATOM      3  C   UNL d   1     211.079 102.735  -1.886  0.00  0.00     0.013 C 
ATOM      4  C   UNL d   1     209.094 103.413  -3.542  0.00  0.00    -0.037 C 
ATOM      5  C   UNL d   1     209.285 104.466  -2.537  0.00  0.00     0.065 C 
ATOM      6  C   UNL d   1     210.781 104.250  -2.131  0.00  0.00     0.033 C 
ATOM      7  C   UNL d   1     211.171 105.180  -0.968  0.00  0.00     0.065 C 
ATOM      8  C   UNL d   1     212.702 105.332  -0.909  0.00  0.00     0.046 C 
ATOM      9  C   UNL d   1     210.673 104.692   0.399  0.00  0.00     0.046 C 
ATOM     10  O   UNL d   1     210.701 106.527  -1.123  0.00  0.00    -0.340 OA
ATOM     11  C   UNL d   1     209.826 106.840  -2.121  0.00  0.00     0.080 A 
ATOM     12  C   UNL d   1     209.097 105.919  -2.876  0.00  0.00     0.017 A 
ATOM     13  C   UNL d   1     209.677 108.214  -2.309  0.00  0.00     0.044 A 
ATOM     14  C   UNL d   1     208.786 108.738  -3.251  0.00  0.00    -0.053 A 
ATOM     15  C   UNL d   1     208.029 107.833  -3.997  0.00  0.00     0.044 A 
ATOM     16  C   UNL d   1     208.170 106.443  -3.789  0.00  0.00     0.075 A 
ENDROOT
BRANCH  14  17
ATOM     17  C   UNL d   1     208.777 110.239  -3.395  0.00  0.00     0.039 C 
BRANCH  17  18
ATOM     18  C   UNL d   1     210.041 110.970  -3.860  0.00  0.00     0.005 C 
BRANCH  18  19
ATOM     19  C   UNL d   1     210.474 110.386  -5.216  0.00  0.00    -0.000 C 
BRANCH  19  20
ATOM     20  C   UNL d   1     211.796 109.628  -5.155  0.00  0.00    -0.005 C 
ATOM     21  C   UNL d   1     211.600 108.168  -5.542  0.00  0.00     0.005 C 
ENDBRANCH  19  20
ENDBRANCH  18  19
ENDBRANCH  17  18
ENDBRANCH  14  17
BRANCH  16  22
ATOM     22  O   UNL d   1     207.357 105.586  -4.480  0.00  0.00    -0.360 OA
ATOM     23  H   UNL d   1     206.431 105.808  -4.290  0.00  0.00     0.217 HD
ENDBRANCH  16  22
BRANCH   1  24
ATOM     24  C   UNL d   1     209.009 101.284  -4.865  0.00  0.00     0.199 C 
BRANCH  24  25
ATOM     25  O   UNL d   1     207.953 101.922  -5.572  0.00  0.00    -0.397 OA
ATOM     26  H   UNL d   1     208.365 102.445  -6.279  0.00  0.00     0.209 HD
ENDBRANCH  24  25
ENDBRANCH   1  24
TORSDOF 7
ENDMDL
MODEL 4
REMARK VINA RESULT:       0.0     20.380     21.961
REMARK  7 active torsions:
REMARK  status: ('A' for Active; 'I' for Inactive)
REMARK    1  A    between atoms: O_1  and  C_2 
REMARK    2  A    between atoms: C_2  and  C_4 
REMARK    3  A    between atoms: C_17  and  C_22 
REMARK    4  A    between atoms: C_19  and  O_20 
REMARK    5  A    between atoms: C_22  and  C_23 
REMARK    6  A    between atoms: C_23  and  C_24 
REMARK    7  A    between atoms: C_24  and  C_25 
ROOT
ATOM      1  C   UNL d   1     198.392 100.597  13.899  0.00  0.00    -0.049 C 
ATOM      2  C   UNL d   1     199.648 100.096  13.203  0.00  0.00     0.037 C 
ATOM      3  C   UNL d   1     199.997  98.640  13.627  0.00  0.00     0.013 C 
ATOM      4  C   UNL d   1     198.029  99.891  14.933  0.00  0.00    -0.037 C 
ATOM      5  C   UNL d   1     198.346  98.625  15.605  0.00  0.00     0.065 C 
ATOM      6  C   UNL d   1     199.828  98.392  15.161  0.00  0.00     0.033 C 
ATOM      7  C   UNL d   1     200.336  97.024  15.653  0.00  0.00     0.065 C 
ATOM      8  C   UNL d   1     201.876  97.011  15.663  0.00  0.00     0.046 C 
ATOM      9  C   UNL d   1     199.840  95.847  14.804  0.00  0.00     0.046 C 
ATOM     10  O   UNL d   1     199.985  96.732  17.013  0.00  0.00    -0.340 OA
ATOM     11  C   UNL d   1     199.110  97.534  17.685  0.00  0.00     0.080 A 
ATOM     12  C   UNL d   1     198.277  98.492  17.101  0.00  0.00     0.017 A 
ATOM     13  C   UNL d   1     199.079  97.284  19.057  0.00  0.00     0.044 A 
ATOM     14  C   UNL d   1     198.209  97.967  19.912  0.00  0.00    -0.053 A 
ATOM     15  C   UNL d   1     197.350  98.910  19.344  0.00  0.00     0.044 A 
ATOM     16  C   UNL d   1     197.373  99.145  17.951  0.00  0.00     0.075 A 
ENDROOT
BRANCH  14  17
ATOM     17  C   UNL d   1     198.330  97.644  21.381  0.00  0.00     0.039 C 
BRANCH  17  18
ATOM     18  C   UNL d   1     199.634  97.949  22.126  0.00  0.00     0.005 C 
BRANCH  18  19
ATOM     19  C   UNL d   1     199.923  99.455  22.011  0.00  0.00    -0.000 C 
BRANCH  19  20
ATOM     20  C   UNL d   1     201.169  99.772  21.189  0.00  0.00    -0.005 C 
ATOM     21  C   UNL d   1     200.804 100.552  19.932  0.00  0.00     0.005 C 
ENDBRANCH  19  20
ENDBRANCH  18  19
ENDBRANCH  17  18
ENDBRANCH  14  17
BRANCH  16  22
ATOM     22  O   UNL d   1     196.465 100.017  17.414  0.00  0.00    -0.360 OA
ATOM     23  H   UNL d   1     196.221  99.710  16.526  0.00  0.00     0.217 HD
ENDBRANCH  16  22
BRANCH   1  24
ATOM     24  C   UNL d   1     197.712 101.795  13.331  0.00  0.00     0.199 C 
BRANCH  24  25
ATOM     25  O   UNL d   1     196.661 102.179  14.209  0.00  0.00    -0.397 OA
ATOM     26  H   UNL d   1     196.311 101.363  14.601  0.00  0.00     0.209 HD
ENDBRANCH  24  25
ENDBRANCH   1  24
TORSDOF 7
ENDMDL
MODEL 5
REMARK VINA RESULT:       0.0     14.651     18.665
REMARK  7 active torsions:
REMARK  status: ('A' for Active; 'I' for Inactive)
REMARK    1  A    between atoms: O_1  and  C_2 
REMARK    2  A    between atoms: C_2  and  C_4 
REMARK    3  A    between atoms: C_17  and  C_22 
REMARK    4  A    between atoms: C_19  and  O_20 
REMARK    5  A    between atoms: C_22  and  C_23 
REMARK    6  A    between atoms: C_23  and  C_24 
REMARK    7  A    between atoms: C_24  and  C_25 
ROOT
ATOM      1  C   UNL d   1     222.249  90.725  33.350  0.00  0.00    -0.049 C 
ATOM      2  C   UNL d   1     223.133  91.546  32.424  0.00  0.00     0.037 C 
ATOM      3  C   UNL d   1     222.296  92.293  31.346  0.00  0.00     0.013 C 
ATOM      4  C   UNL d   1     221.042  90.521  32.905  0.00  0.00    -0.037 C 
ATOM      5  C   UNL d   1     220.144  90.960  31.829  0.00  0.00     0.065 C 
ATOM      6  C   UNL d   1     221.163  91.411  30.730  0.00  0.00     0.033 C 
ATOM      7  C   UNL d   1     220.429  92.044  29.534  0.00  0.00     0.065 C 
ATOM      8  C   UNL d   1     221.337  92.020  28.291  0.00  0.00     0.046 C 
ATOM      9  C   UNL d   1     219.981  93.489  29.787  0.00  0.00     0.046 C 
ATOM     10  O   UNL d   1     219.264  91.316  29.118  0.00  0.00    -0.340 OA
ATOM     11  C   UNL d   1     218.789  90.288  29.877  0.00  0.00     0.080 A 
ATOM     12  C   UNL d   1     219.157  90.019  31.198  0.00  0.00     0.017 A 
ATOM     13  C   UNL d   1     217.832  89.516  29.218  0.00  0.00     0.044 A 
ATOM     14  C   UNL d   1     217.187  88.446  29.845  0.00  0.00    -0.053 A 
ATOM     15  C   UNL d   1     217.522  88.178  31.173  0.00  0.00     0.044 A 
ATOM     16  C   UNL d   1     218.478  88.974  31.842  0.00  0.00     0.075 A 
ENDROOT
BRANCH  14  17
ATOM     17  C   UNL d   1     216.224  87.657  28.992  0.00  0.00     0.039 C 
BRANCH  17  18
ATOM     18  C   UNL d   1     216.737  86.897  27.764  0.00  0.00     0.005 C 
BRANCH  18  19
ATOM     19  C   UNL d   1     217.804  85.888  28.222  0.00  0.00    -0.000 C 
BRANCH  19  20
ATOM     20  C   UNL d   1     219.203  86.209  27.705  0.00  0.00    -0.005 C 
ATOM     21  C   UNL d   1     220.146  86.527  28.859  0.00  0.00     0.005 C 
ENDBRANCH  19  20
ENDBRANCH  18  19
ENDBRANCH  17  18
ENDBRANCH  14  17
BRANCH  16  22
ATOM     22  O   UNL d   1     218.726  88.735  33.167  0.00  0.00    -0.360 OA
ATOM     23  H   UNL d   1     218.395  87.852  33.395  0.00  0.00     0.217 HD
ENDBRANCH  16  22
BRANCH   1  24
ATOM     24  C   UNL d   1     222.832  90.268  34.644  0.00  0.00     0.199 C 
BRANCH  24  25
ATOM     25  O   UNL d   1     221.900  89.402  35.280  0.00  0.00    -0.397 OA
ATOM     26  H   UNL d   1     221.404  89.943  35.916  0.00  0.00     0.209 HD
ENDBRANCH  24  25
ENDBRANCH   1  24
TORSDOF 7
ENDMDL
